356,Ni90Fe4Cr4_7,-237.844631074243, 176.030492444835,Ni90Fe4Cr4,"# generated using pymatgen
 data_Cr2FeNi24
_symmetry_space_group_name_H-M   'P 1'
_cell_length_a   7.45663556
_cell_length_b   7.45663556
_cell_length_c   10.54527514
_cell_angle_alpha   90.00000000
_cell_angle_beta   90.00000000
_cell_angle_gamma   90.00000000
_symmetry_Int_Tables_number   1
_chemical_formula_structural   Cr2FeNi24
_chemical_formula_sum   'Cr4 Fe2 Ni48'
_cell_volume   586.33220784
_cell_formula_units_Z   2
loop_
 _symmetry_equiv_pos_site_id
 _symmetry_equiv_pos_as_xyz
  1  'x, y, z'
loop_
 _atom_site_type_symbol
 _atom_site_label
 _atom_site_symmetry_multiplicity
 _atom_site_fract_x
 _atom_site_fract_y
 _atom_site_fract_z
 _atom_site_occupancy
  Ni  Ni0  1  0.00173168  0.00179274  0.00112072  1
  Ni  Ni1  1  0.16676075  0.16846811  0.16733779  1
  Ni  Ni2  1  0.00085438  0.00099930  0.33437046  1
  Ni  Ni3  1  1.00023101  0.33387667  1.00013074  1
  Ni  Ni4  1  0.16839185  0.50064650  0.16769503  1
  Ni  Ni5  1  1.00017925  0.33369167  0.33443559  1
  Ni  Ni6  1  0.00118151  0.66630603  0.00178911  1
  Ni  Ni7  1  0.16666477  0.83304033  0.16733309  1
  Ni  Ni8  1  1.00037595  0.66736539  0.33404561  1
  Ni  Ni9  1  0.33324302  0.99990742  0.00231434  1
  Ni  Ni10  1  0.50126720  0.16807317  0.16769535  1
  Ni  Ni11  1  0.33415365  0.00072867  0.33314786  1
  Ni  Ni12  1  0.33350413  0.33469793  0.00128438  1
  Ni  Ni13  1  0.49928106  0.50066228  0.16731410  1
  Ni  Ni14  1  0.33444099  0.33370733  0.33444589  1
  Ni  Ni15  1  0.33433742  0.66745065  0.99967135  1
  Ni  Ni16  1  0.50146373  0.83336477  0.16699223  1
  Ni  Ni17  1  0.33447541  0.66767996  0.33483552  1
  Ni  Ni18  1  0.66724326  0.00089399  0.00172189  1
  Ni  Ni19  1  0.83403829  0.16618589  0.16697285  1
  Ni  Ni20  1  0.66721103  0.00094150  0.33484108  1
  Ni  Ni21  1  0.66840854  0.33505322  0.00190938  1
  Fe  Fe22  1  0.83442047  0.50059668  0.16779291  1
  Ni  Ni23  1  0.66746439  0.33407268  0.33362530  1
  Ni  Ni24  1  0.66650301  0.66600060  0.00162446  1
  Ni  Ni25  1  0.83402507  0.83493843  0.16773936  1
  Ni  Ni26  1  0.66720877  0.66702964  0.33392847  1
  Ni  Ni27  1  0.16632116  0.16899435  0.49938861  1
  Ni  Ni28  1  0.00091278  0.00321789  0.66647091  1
  Ni  Ni29  1  0.16516129  0.16889543  0.83526733  1
  Ni  Ni30  1  0.16852090  0.49964197  0.50006286  1
  Ni  Ni31  1  0.99977272  0.33238694  0.66763404  1
  Ni  Ni32  1  0.16853444  0.49957116  0.83440404  1
  Ni  Ni33  1  0.16711816  0.83359710  0.49823781  1
  Cr  Cr34  1  0.00159805  0.66629268  0.66620948  1
  Ni  Ni35  1  0.16820920  0.83357699  0.83643719  1
  Ni  Ni36  1  0.50162939  0.16901203  0.49898259  1
  Cr  Cr37  1  0.33158816  0.99931138  0.66639006  1
  Cr  Cr38  1  0.50201611  0.16891870  0.83554741  1
  Ni  Ni39  1  0.50036505  0.50057894  0.50090488  1
  Ni  Ni40  1  0.33383081  0.33535165  0.66636375  1
  Ni  Ni41  1  0.50044446  0.50183396  0.83378460  1
  Ni  Ni42  1  0.50190411  0.83256725  0.49983919  1
  Ni  Ni43  1  0.33638354  0.66646484  0.66763624  1
  Ni  Ni44  1  0.50015698  0.83097808  0.83533497  1
  Ni  Ni45  1  0.83417305  0.16745826  0.50144279  1
  Fe  Fe46  1  0.66743948  0.00125752  0.66556473  1
  Ni  Ni47  1  0.83578822  0.16917163  0.83365143  1
  Ni  Ni48  1  0.83328053  0.49984357  0.49881152  1
  Ni  Ni49  1  0.66866001  0.33628094  0.66653093  1
  Ni  Ni50  1  0.83318810  0.49877088  0.83583061  1
  Ni  Ni51  1  0.83329618  0.83488615  0.49975750  1
  Ni  Ni52  1  0.66554014  0.66497845  0.66652389  1
  Cr  Cr53  1  0.83280777  0.83569108  0.83457716  1
" 