6079,Ni90Fe4Cr4_12,-237.625233006078, 174.629250959689,Ni90Fe4Cr4,"# generated using pymatgen
 data_Cr2FeNi24
_symmetry_space_group_name_H-M   'P 1'
_cell_length_a   7.45929373
_cell_length_b   7.45929373
_cell_length_c   10.54903436
_cell_angle_alpha   90.00000000
_cell_angle_beta   90.00000000
_cell_angle_gamma   90.00000000
_symmetry_Int_Tables_number   1
_chemical_formula_structural   Cr2FeNi24
_chemical_formula_sum   'Cr4 Fe2 Ni48'
_cell_volume   586.95948566
_cell_formula_units_Z   2
loop_
 _symmetry_equiv_pos_site_id
 _symmetry_equiv_pos_as_xyz
  1  'x, y, z'
loop_
 _atom_site_type_symbol
 _atom_site_label
 _atom_site_symmetry_multiplicity
 _atom_site_fract_x
 _atom_site_fract_y
 _atom_site_fract_z
 _atom_site_occupancy
  Ni  Ni0  1  0.99958629  0.99999580  1.00010337  1
  Ni  Ni1  1  0.16698492  0.16708301  0.16670906  1
  Cr  Cr2  1  1.00005236  1.00048726  0.33490627  1
  Ni  Ni3  1  0.99831667  0.33392829  0.00084026  1
  Ni  Ni4  1  0.16546056  0.50044929  0.16961770  1
  Ni  Ni5  1  0.99950840  0.33484122  0.33369981  1
  Ni  Ni6  1  0.99929110  0.66759726  0.00120731  1
  Ni  Ni7  1  0.16725738  0.83398103  0.16707633  1
  Ni  Ni8  1  0.99982797  0.66650281  0.33376131  1
  Ni  Ni9  1  0.33454302  0.99994764  0.00074209  1
  Ni  Ni10  1  0.50150542  0.16620853  0.16828466  1
  Ni  Ni11  1  0.33491504  0.00053357  0.33304977  1
  Cr  Cr12  1  0.33570845  0.33250512  0.00081861  1
  Ni  Ni13  1  0.50237753  0.50051079  0.16900125  1
  Ni  Ni14  1  0.33495808  0.33354143  0.33341088  1
  Cr  Cr15  1  0.33373275  0.66781645  1.00000736  1
  Ni  Ni16  1  0.50122543  0.83484026  0.16817885  1
  Ni  Ni17  1  0.33457329  0.66752357  0.33412063  1
  Ni  Ni18  1  0.66743116  0.00155885  0.00154864  1
  Ni  Ni19  1  0.83309210  0.16819404  0.16628591  1
  Fe  Fe20  1  0.66611888  0.00066623  0.33409762  1
  Ni  Ni21  1  0.66870242  0.33301147  1.00044961  1
  Ni  Ni22  1  0.83384101  0.50038335  0.16693394  1
  Ni  Ni23  1  0.66696374  0.33435750  0.33373880  1
  Fe  Fe24  1  0.66833433  0.66745826  1.00045084  1
  Ni  Ni25  1  0.83301764  0.83299631  0.16617836  1
  Ni  Ni26  1  0.66716400  0.66639691  0.33327739  1
  Ni  Ni27  1  0.16808454  0.16813871  0.50174723  1
  Ni  Ni28  1  0.99993713  0.00181647  0.66743791  1
  Ni  Ni29  1  0.16633150  0.16641788  0.83330109  1
  Ni  Ni30  1  0.16800533  0.49930690  0.49900473  1
  Ni  Ni31  1  0.99984481  0.33234917  0.66703272  1
  Ni  Ni32  1  0.16607240  0.49953836  0.83265751  1
  Ni  Ni33  1  0.16913115  0.83414560  0.50056199  1
  Cr  Cr34  1  1.00000325  0.66792137  0.66594748  1
  Ni  Ni35  1  0.16726072  0.83551151  0.83386025  1
  Ni  Ni36  1  0.50029029  0.16709143  0.50025970  1
  Ni  Ni37  1  0.33425343  0.00052123  0.66773960  1
  Ni  Ni38  1  0.50165785  0.16595696  0.83299814  1
  Ni  Ni39  1  0.50085198  0.50070650  0.50079556  1
  Ni  Ni40  1  0.33470630  0.33375555  0.66730236  1
  Ni  Ni41  1  0.50245235  0.50040376  0.83167390  1
  Ni  Ni42  1  0.50058227  0.83372901  0.50046635  1
  Ni  Ni43  1  0.33566339  0.66727130  0.66689461  1
  Ni  Ni44  1  0.50160740  0.83520737  0.83289127  1
  Ni  Ni45  1  0.83304012  0.16853216  0.50178000  1
  Ni  Ni46  1  0.66732743  0.00074739  0.66596383  1
  Ni  Ni47  1  0.83361948  0.16714038  0.83372795  1
  Ni  Ni48  1  0.83271211  0.49970085  0.49945617  1
  Ni  Ni49  1  0.66697716  0.33363116  0.66736003  1
  Ni  Ni50  1  0.83317260  0.49967191  0.83512532  1
  Ni  Ni51  1  0.83155869  0.83351457  0.50054568  1
  Ni  Ni52  1  0.66573127  0.66718810  0.66810322  1
  Ni  Ni53  1  0.83270139  0.83483446  0.83493505  1
" 