498,Ni90Fe2Cr7_14,-236.616293118885, 170.970343921668,Ni90Fe2Cr7,"# generated using pymatgen
 data_Cr5FeNi48
_symmetry_space_group_name_H-M   'P 1'
_cell_length_a   7.46227077
_cell_length_b   7.46227077
_cell_length_c   10.55324452
_cell_angle_alpha   90.00000000
_cell_angle_beta   90.00000000
_cell_angle_gamma   90.00000000
_symmetry_Int_Tables_number   1
_chemical_formula_structural   Cr5FeNi48
_chemical_formula_sum   'Cr5 Fe1 Ni48'
_cell_volume   587.66253947
_cell_formula_units_Z   1
loop_
 _symmetry_equiv_pos_site_id
 _symmetry_equiv_pos_as_xyz
  1  'x, y, z'
loop_
 _atom_site_type_symbol
 _atom_site_label
 _atom_site_symmetry_multiplicity
 _atom_site_fract_x
 _atom_site_fract_y
 _atom_site_fract_z
 _atom_site_occupancy
  Ni  Ni0  1  0.00271610  0.99976419  0.00083786  1
  Ni  Ni1  1  0.16680831  0.16669678  0.16494024  1
  Cr  Cr2  1  0.99998873  1.00029236  0.33380965  1
  Ni  Ni3  1  0.00152703  0.33437895  0.00162813  1
  Ni  Ni4  1  0.16593518  0.50114279  0.16641006  1
  Ni  Ni5  1  0.99854662  0.33533788  0.33357707  1
  Ni  Ni6  1  1.00005731  0.66681628  1.00015801  1
  Ni  Ni7  1  0.16821775  0.83312148  0.16635349  1
  Ni  Ni8  1  0.99991017  0.66545558  0.33405306  1
  Ni  Ni9  1  0.33190136  0.00100204  0.00033872  1
  Ni  Ni10  1  0.50055495  0.16652916  0.16722543  1
  Ni  Ni11  1  0.33502311  0.99962680  0.33282005  1
  Ni  Ni12  1  0.33344863  0.33350287  1.00002161  1
  Ni  Ni13  1  0.50142775  0.50131105  0.16611792  1
  Cr  Cr14  1  0.33344572  0.33379915  0.33383999  1
  Ni  Ni15  1  0.33368279  0.66645569  0.00039580  1
  Ni  Ni16  1  0.49931752  0.83312105  0.16808098  1
  Ni  Ni17  1  0.33323824  0.66760257  0.33300102  1
  Cr  Cr18  1  0.66654770  0.99910532  0.00138708  1
  Ni  Ni19  1  0.83359627  0.16880875  0.16741757  1
  Ni  Ni20  1  0.66620523  0.00098221  0.33295888  1
  Ni  Ni21  1  0.66598306  0.33615469  0.00097639  1
  Ni  Ni22  1  0.83359552  0.49990350  0.16704274  1
  Ni  Ni23  1  0.66834759  0.33355715  0.33410585  1
  Ni  Ni24  1  0.66722026  0.66526318  1.00021573  1
  Ni  Ni25  1  0.83342850  0.83224689  0.16698925  1
  Ni  Ni26  1  0.66781012  0.66642121  0.33258403  1
  Ni  Ni27  1  0.16661816  0.16709948  0.50216695  1
  Ni  Ni28  1  0.00051143  0.99977169  0.66625246  1
  Ni  Ni29  1  0.16877857  0.16668541  0.83385118  1
  Ni  Ni30  1  0.16574766  0.50096827  0.50093514  1
  Ni  Ni31  1  0.00197110  0.33418674  0.66575563  1
  Ni  Ni32  1  0.16716804  0.50052382  0.83361402  1
  Ni  Ni33  1  0.16624624  0.83289266  0.50096473  1
  Ni  Ni34  1  0.99963802  0.66700092  0.66674965  1
  Ni  Ni35  1  0.16735804  0.83375090  0.83364207  1
  Ni  Ni36  1  0.50126659  0.16756838  0.50103378  1
  Ni  Ni37  1  0.33328539  0.00204853  0.66779702  1
  Ni  Ni38  1  0.49766124  0.16746469  0.83270428  1
  Ni  Ni39  1  0.50109119  0.49944927  0.50108974  1
  Ni  Ni40  1  0.33324019  0.33331412  0.66712337  1
  Ni  Ni41  1  0.50031158  0.50079334  0.83375601  1
  Cr  Cr42  1  0.49972369  0.83368345  0.49950749  1
  Ni  Ni43  1  0.33328481  0.66559628  0.66756041  1
  Ni  Ni44  1  0.49934386  0.83270528  0.83299361  1
  Ni  Ni45  1  0.83307546  0.16806881  0.50065908  1
  Ni  Ni46  1  0.66716203  0.99972320  0.66655240  1
  Cr  Cr47  1  0.83483554  0.16783007  0.83317569  1
  Ni  Ni48  1  0.83412279  0.49982467  0.49998248  1
  Fe  Fe49  1  0.66600154  0.33449336  0.66606529  1
  Ni  Ni50  1  0.83348024  0.50221908  0.83393807  1
  Ni  Ni51  1  0.83458450  0.83306958  0.50135135  1
  Ni  Ni52  1  0.66803480  0.66705208  0.66815654  1
  Ni  Ni53  1  0.83425937  0.83109993  0.83261854  1
" 