3313,Ni90Fe3Cr5_6,-237.796482518595, 177.467481335561,Ni90Fe3Cr5,"# generated using pymatgen
 data_Cr2FeNi24
_symmetry_space_group_name_H-M   'P 1'
_cell_length_a   7.45905136
_cell_length_b   7.45905136
_cell_length_c   10.54869159
_cell_angle_alpha   90.00000000
_cell_angle_beta   90.00000000
_cell_angle_gamma   90.00000000
_symmetry_Int_Tables_number   1
_chemical_formula_structural   Cr2FeNi24
_chemical_formula_sum   'Cr4 Fe2 Ni48'
_cell_volume   586.90227124
_cell_formula_units_Z   2
loop_
 _symmetry_equiv_pos_site_id
 _symmetry_equiv_pos_as_xyz
  1  'x, y, z'
loop_
 _atom_site_type_symbol
 _atom_site_label
 _atom_site_symmetry_multiplicity
 _atom_site_fract_x
 _atom_site_fract_y
 _atom_site_fract_z
 _atom_site_occupancy
  Ni  Ni0  1  1.00034345  0.00158176  1.00025321  1
  Ni  Ni1  1  0.16711106  0.16693618  0.16766398  1
  Ni  Ni2  1  0.99963542  0.00150478  0.33320686  1
  Ni  Ni3  1  0.00080156  0.33340870  0.00081984  1
  Ni  Ni4  1  0.16743878  0.50041283  0.16734021  1
  Ni  Ni5  1  0.00060718  0.33408874  0.33379965  1
  Fe  Fe6  1  1.00029632  0.66696068  0.00135636  1
  Ni  Ni7  1  0.16710995  0.83427749  0.16652306  1
  Ni  Ni8  1  0.99982031  0.66607770  0.33214287  1
  Ni  Ni9  1  0.33374793  1.00004961  1.00039098  1
  Ni  Ni10  1  0.50042098  0.16736077  0.16621850  1
  Ni  Ni11  1  0.33481347  0.00103776  0.33253724  1
  Ni  Ni12  1  0.33212380  0.33357860  0.00155164  1
  Ni  Ni13  1  0.50059134  0.50046885  0.16699606  1
  Ni  Ni14  1  0.33351965  0.33417900  0.33373516  1
  Ni  Ni15  1  0.33388525  0.66784793  0.00170542  1
  Ni  Ni16  1  0.50050051  0.83378925  0.16732759  1
  Ni  Ni17  1  0.33470393  0.66644388  0.33267240  1
  Ni  Ni18  1  0.66752445  0.99972979  0.00077269  1
  Ni  Ni19  1  0.83406387  0.16701299  0.16697168  1
  Ni  Ni20  1  0.66710885  1.00026797  0.33340139  1
  Ni  Ni21  1  0.66879885  0.33333658  0.00088278  1
  Ni  Ni22  1  0.83353246  0.50047872  0.16667187  1
  Ni  Ni23  1  0.66748692  0.33399882  0.33388752  1
  Ni  Ni24  1  0.66722029  0.66837044  0.00153084  1
  Ni  Ni25  1  0.83394996  0.83416282  0.16769103  1
  Ni  Ni26  1  0.66705061  0.66735521  0.33410940  1
  Ni  Ni27  1  0.16823831  0.16753866  0.49945733  1
  Ni  Ni28  1  0.00115576  0.99985494  0.66809676  1
  Ni  Ni29  1  0.16787365  0.16686530  0.83434692  1
  Ni  Ni30  1  0.16800896  0.50029355  0.49968306  1
  Cr  Cr31  1  1.00013776  0.33349241  0.66636769  1
  Ni  Ni32  1  0.16664721  0.50073848  0.83473155  1
  Cr  Cr33  1  0.16641431  0.83430942  0.50069110  1
  Ni  Ni34  1  0.99986470  0.66740380  0.66905027  1
  Fe  Fe35  1  0.16728209  0.83431314  0.83433808  1
  Ni  Ni36  1  0.49947154  0.16829277  0.50019978  1
  Ni  Ni37  1  0.33337857  0.00104253  0.66861350  1
  Ni  Ni38  1  0.49920918  0.16606740  0.83515512  1
  Ni  Ni39  1  0.50057388  0.50034340  0.50103069  1
  Ni  Ni40  1  0.33371526  0.33335250  0.66638155  1
  Cr  Cr41  1  0.50087732  0.49983370  0.83370038  1
  Ni  Ni42  1  0.50094039  0.83309244  0.49968708  1
  Ni  Ni43  1  0.33390659  0.66719534  0.66722236  1
  Ni  Ni44  1  0.50052842  0.83423203  0.83451083  1
  Ni  Ni45  1  0.83385255  0.16695316  0.49858511  1
  Cr  Cr46  1  0.66738451  0.00076576  0.66701209  1
  Ni  Ni47  1  0.83442993  0.16666336  0.83576943  1
  Ni  Ni48  1  0.83295497  0.50178270  0.50019375  1
  Ni  Ni49  1  0.66684161  0.33474507  0.66688560  1
  Ni  Ni50  1  0.83501299  0.50186405  0.83490547  1
  Ni  Ni51  1  0.83361675  0.83289431  0.49953439  1
  Ni  Ni52  1  0.66797114  0.66709726  0.66605600  1
  Ni  Ni53  1  0.83444903  0.83319922  0.83457840  1
" 