2812,Ni90Fe2Cr7_19,-236.646743734871, 170.067465096055,Ni90Fe2Cr7,"# generated using pymatgen
 data_Cr5FeNi48
_symmetry_space_group_name_H-M   'P 1'
_cell_length_a   7.46427953
_cell_length_b   7.46427953
_cell_length_c   10.55608534
_cell_angle_alpha   90.00000000
_cell_angle_beta   90.00000000
_cell_angle_gamma   90.00000000
_symmetry_Int_Tables_number   1
_chemical_formula_structural   Cr5FeNi48
_chemical_formula_sum   'Cr5 Fe1 Ni48'
_cell_volume   588.13724430
_cell_formula_units_Z   1
loop_
 _symmetry_equiv_pos_site_id
 _symmetry_equiv_pos_as_xyz
  1  'x, y, z'
loop_
 _atom_site_type_symbol
 _atom_site_label
 _atom_site_symmetry_multiplicity
 _atom_site_fract_x
 _atom_site_fract_y
 _atom_site_fract_z
 _atom_site_occupancy
  Fe  Fe0  1  0.99945429  0.99964320  0.00210212  1
  Ni  Ni1  1  0.16720205  0.16668233  0.16728397  1
  Ni  Ni2  1  0.99981003  0.00029244  0.33215011  1
  Ni  Ni3  1  0.99994447  0.33409473  0.00251635  1
  Ni  Ni4  1  0.16667997  0.50031198  0.16666476  1
  Ni  Ni5  1  1.00010761  0.33311704  0.33331799  1
  Ni  Ni6  1  0.00089089  0.66738593  0.00093524  1
  Ni  Ni7  1  0.16716892  0.83357483  0.16692532  1
  Ni  Ni8  1  1.00013412  0.66714952  0.33365811  1
  Ni  Ni9  1  0.33523193  0.99944414  0.00117910  1
  Ni  Ni10  1  0.50011528  0.16651807  0.16703791  1
  Ni  Ni11  1  0.33339589  0.00031620  0.33364483  1
  Ni  Ni12  1  0.33360824  0.33358413  0.00140160  1
  Ni  Ni13  1  0.50044710  0.50028487  0.16647069  1
  Ni  Ni14  1  0.33315612  0.33315959  0.33285582  1
  Ni  Ni15  1  0.33285036  0.66755005  0.99993158  1
  Ni  Ni16  1  0.50008682  0.83370614  0.16735377  1
  Ni  Ni17  1  0.33317293  0.66703685  0.33323037  1
  Ni  Ni18  1  0.66669188  0.00025447  0.00029149  1
  Ni  Ni19  1  0.83331716  0.16698264  0.16655802  1
  Ni  Ni20  1  0.66731720  0.00029971  0.33332349  1
  Ni  Ni21  1  0.66669360  0.33161009  0.00106385  1
  Ni  Ni22  1  0.83337871  0.50028885  0.16737470  1
  Ni  Ni23  1  0.66725939  0.33277153  0.33319574  1
  Ni  Ni24  1  0.66676013  0.66855162  0.00147434  1
  Ni  Ni25  1  0.83333740  0.83329403  0.16689689  1
  Ni  Ni26  1  0.66731333  0.66743264  0.33283388  1
  Ni  Ni27  1  0.16594653  0.16544321  0.49890011  1
  Ni  Ni28  1  0.99893992  0.99940415  0.66685704  1
  Cr  Cr29  1  0.16565103  0.16615371  0.83451730  1
  Ni  Ni30  1  0.16504051  0.50030916  0.49846138  1
  Ni  Ni31  1  0.99899723  0.33294858  0.66476875  1
  Ni  Ni32  1  0.16634881  0.50160975  0.83531241  1
  Ni  Ni33  1  0.16595108  0.83482525  0.49944455  1
  Ni  Ni34  1  0.00071900  0.66808483  0.66596115  1
  Ni  Ni35  1  0.16615774  0.83335527  0.83434964  1
  Ni  Ni36  1  0.50106775  0.16563709  0.49928649  1
  Ni  Ni37  1  0.33418024  0.99967161  0.66585658  1
  Ni  Ni38  1  0.50199620  0.16557232  0.83415823  1
  Ni  Ni39  1  0.50142122  0.49927360  0.49672421  1
  Cr  Cr40  1  0.33481932  0.33351030  0.66595436  1
  Ni  Ni41  1  0.50005301  0.49931517  0.83723119  1
  Ni  Ni42  1  0.50013756  0.83534769  0.49786304  1
  Cr  Cr43  1  0.33212684  0.66825340  0.66748682  1
  Ni  Ni44  1  0.50018321  0.83554190  0.83530762  1
  Ni  Ni45  1  0.83367469  0.16651964  0.50061040  1
  Ni  Ni46  1  0.66729455  0.00160415  0.66706377  1
  Ni  Ni47  1  0.83180905  0.16513532  0.83351646  1
  Ni  Ni48  1  0.83408119  0.49939603  0.49903345  1
  Ni  Ni49  1  0.66796289  0.33050555  0.66626104  1
  Cr  Cr50  1  0.83421182  0.49887705  0.83381457  1
  Ni  Ni51  1  0.83450637  0.83456395  0.49916753  1
  Cr  Cr52  1  0.66690296  0.66828864  0.66584483  1
  Ni  Ni53  1  0.83430627  0.83552779  0.83458785  1
" 