5343,Ni90Fe3Cr5_9,-237.698633382124, 176.571193900532,Ni90Fe3Cr5,"# generated using pymatgen
 data_Cr2FeNi24
_symmetry_space_group_name_H-M   'P 1'
_cell_length_a   7.45655857
_cell_length_b   7.45655857
_cell_length_c   10.54516626
_cell_angle_alpha   90.00000000
_cell_angle_beta   90.00000000
_cell_angle_gamma   90.00000000
_symmetry_Int_Tables_number   1
_chemical_formula_structural   Cr2FeNi24
_chemical_formula_sum   'Cr4 Fe2 Ni48'
_cell_volume   586.31404551
_cell_formula_units_Z   2
loop_
 _symmetry_equiv_pos_site_id
 _symmetry_equiv_pos_as_xyz
  1  'x, y, z'
loop_
 _atom_site_type_symbol
 _atom_site_label
 _atom_site_symmetry_multiplicity
 _atom_site_fract_x
 _atom_site_fract_y
 _atom_site_fract_z
 _atom_site_occupancy
  Ni  Ni0  1  1.00068258  0.00223016  1.00064063  1
  Fe  Fe1  1  0.16646770  0.16647135  0.16650747  1
  Ni  Ni2  1  0.00127705  1.00032369  0.33395389  1
  Ni  Ni3  1  1.00062537  0.33235187  0.00105458  1
  Ni  Ni4  1  0.16736900  0.50155677  0.16760876  1
  Ni  Ni5  1  0.99868223  0.33386058  0.33395444  1
  Cr  Cr6  1  1.00018483  0.66768817  1.00049150  1
  Ni  Ni7  1  0.16838729  0.83394963  0.16859574  1
  Ni  Ni8  1  0.00203015  0.66792645  0.33442235  1
  Ni  Ni9  1  0.33428982  1.00068226  1.00063975  1
  Ni  Ni10  1  0.50224390  0.16668021  0.16672204  1
  Ni  Ni11  1  0.33333699  0.99877535  0.33431388  1
  Ni  Ni12  1  0.33452539  0.33407608  1.00051251  1
  Ni  Ni13  1  0.50025266  0.50050629  0.16554250  1
  Cr  Cr14  1  0.33465939  0.33401833  0.33457018  1
  Ni  Ni15  1  0.33617187  0.66735068  0.00148899  1
  Ni  Ni16  1  0.49915694  0.83492388  0.16648808  1
  Ni  Ni17  1  0.33257946  0.66947381  0.33369808  1
  Ni  Ni18  1  0.66713794  1.00058010  0.00134525  1
  Ni  Ni19  1  0.83351479  0.16769927  0.16750671  1
  Fe  Fe20  1  0.66767166  0.00215098  0.33399164  1
  Ni  Ni21  1  0.66695971  0.33423615  0.00107066  1
  Ni  Ni22  1  0.83448752  0.49847465  0.16757794  1
  Ni  Ni23  1  0.66904562  0.33310182  0.33406013  1
  Ni  Ni24  1  0.66541161  0.66729436  1.00038122  1
  Ni  Ni25  1  0.83456361  0.83593905  0.16727328  1
  Cr  Cr26  1  0.66733566  0.66669258  0.33403171  1
  Ni  Ni27  1  0.16681095  0.16660291  0.50131177  1
  Ni  Ni28  1  1.00060316  1.00060512  0.66751712  1
  Ni  Ni29  1  0.16737027  0.16737178  0.83446881  1
  Ni  Ni30  1  0.16579283  0.50095953  0.50048494  1
  Ni  Ni31  1  1.00054597  0.33397503  0.66710299  1
  Ni  Ni32  1  0.16737026  0.49915412  0.83401484  1
  Ni  Ni33  1  0.16681395  0.83454682  0.49949807  1
  Ni  Ni34  1  0.99863616  0.66752955  0.66674069  1
  Ni  Ni35  1  0.16737316  0.83558393  0.83401405  1
  Ni  Ni36  1  0.50141819  0.16667854  0.50160578  1
  Ni  Ni37  1  0.33400854  0.00250909  0.66715799  1
  Ni  Ni38  1  0.50050297  0.16736675  0.83378223  1
  Ni  Ni39  1  0.50125996  0.49970986  0.50130179  1
  Ni  Ni40  1  0.33424425  0.33224973  0.66728539  1
  Ni  Ni41  1  0.50127889  0.49993519  0.83526812  1
  Ni  Ni42  1  0.50016313  0.83572416  0.50035326  1
  Cr  Cr43  1  0.33419075  0.66732341  0.66701160  1
  Ni  Ni44  1  0.50128168  0.83480807  0.83526821  1
  Ni  Ni45  1  0.83388089  0.16769918  0.50035518  1
  Ni  Ni46  1  0.66749837  1.00059994  0.66670430  1
  Ni  Ni47  1  0.83423623  0.16736888  0.83424714  1
  Ni  Ni48  1  0.83505710  0.49970652  0.50129900  1
  Ni  Ni49  1  0.66731947  0.33421671  0.66697868  1
  Ni  Ni50  1  0.83346018  0.49993190  0.83323046  1
  Ni  Ni51  1  0.83513429  0.83470575  0.50160461  1
  Ni  Ni52  1  0.66922370  0.66729415  0.66769953  1
  Ni  Ni53  1  0.83345450  0.83480943  0.83323006  1
" 