8967,Ni90Fe3Cr5_5,-237.687181872478, 176.202407654508,Ni90Fe3Cr5,"# generated using pymatgen
 data_Cr2FeNi24
_symmetry_space_group_name_H-M   'P 1'
_cell_length_a   7.45765008
_cell_length_b   7.45765008
_cell_length_c   10.54670988
_cell_angle_alpha   90.00000000
_cell_angle_beta   90.00000000
_cell_angle_gamma   90.00000000
_symmetry_Int_Tables_number   1
_chemical_formula_structural   Cr2FeNi24
_chemical_formula_sum   'Cr4 Fe2 Ni48'
_cell_volume   586.57156110
_cell_formula_units_Z   2
loop_
 _symmetry_equiv_pos_site_id
 _symmetry_equiv_pos_as_xyz
  1  'x, y, z'
loop_
 _atom_site_type_symbol
 _atom_site_label
 _atom_site_symmetry_multiplicity
 _atom_site_fract_x
 _atom_site_fract_y
 _atom_site_fract_z
 _atom_site_occupancy
  Ni  Ni0  1  0.99895431  0.00154525  0.00165809  1
  Ni  Ni1  1  0.16699005  0.16487226  0.16609534  1
  Ni  Ni2  1  1.00056972  1.00059506  0.33376435  1
  Ni  Ni3  1  1.00041268  0.33228390  0.99987619  1
  Cr  Cr4  1  0.16546395  0.50155621  0.16652437  1
  Ni  Ni5  1  0.99861272  0.33243457  0.33439863  1
  Ni  Ni6  1  0.99903872  0.66801831  1.00028705  1
  Ni  Ni7  1  0.16679773  0.83592833  0.16760172  1
  Ni  Ni8  1  0.99958309  0.66869620  0.33488282  1
  Fe  Fe9  1  0.33485876  0.00152376  0.00137673  1
  Ni  Ni10  1  0.50135791  0.16633403  0.16645968  1
  Ni  Ni11  1  0.33377306  0.99935736  0.33313915  1
  Ni  Ni12  1  0.33465526  0.33347518  0.99940917  1
  Ni  Ni13  1  0.50375859  0.50089472  0.16658315  1
  Cr  Cr14  1  0.33437407  0.33287215  0.33539105  1
  Ni  Ni15  1  0.33596973  0.66648523  0.00093630  1
  Ni  Ni16  1  0.50138922  0.83474247  0.16721530  1
  Ni  Ni17  1  0.33506030  0.66976091  0.33488079  1
  Ni  Ni18  1  0.66816168  1.00028032  1.00007486  1
  Fe  Fe19  1  0.83314200  0.16686502  0.16731217  1
  Ni  Ni20  1  0.66749891  1.00022498  0.33428244  1
  Ni  Ni21  1  0.66674755  0.33351386  0.00080713  1
  Ni  Ni22  1  0.83224545  0.50102037  0.16719244  1
  Ni  Ni23  1  0.66851303  0.33370227  0.33359405  1
  Ni  Ni24  1  0.66696989  0.66798801  0.00067456  1
  Ni  Ni25  1  0.83383885  0.83326780  0.16713932  1
  Ni  Ni26  1  0.66726999  0.66783895  0.33336562  1
  Ni  Ni27  1  0.16643480  0.16602997  0.50160170  1
  Ni  Ni28  1  0.99954766  0.00179956  0.66647189  1
  Ni  Ni29  1  0.16720176  0.16880664  0.83412134  1
  Ni  Ni30  1  0.16578568  0.50148151  0.50186044  1
  Ni  Ni31  1  0.00085990  0.33331727  0.66757066  1
  Ni  Ni32  1  0.16701308  0.49910045  0.83385229  1
  Ni  Ni33  1  0.16724510  0.83439321  0.49991045  1
  Ni  Ni34  1  0.00129850  0.66674188  0.66676545  1
  Cr  Cr35  1  0.16705410  0.83402424  0.83409091  1
  Ni  Ni36  1  0.50184355  0.16610527  0.50170088  1
  Ni  Ni37  1  0.33465605  0.00169793  0.66690257  1
  Ni  Ni38  1  0.50115663  0.16739190  0.83363033  1
  Ni  Ni39  1  0.50138156  0.50029787  0.50015374  1
  Ni  Ni40  1  0.33377899  0.33394717  0.66759713  1
  Ni  Ni41  1  0.50015353  0.49933226  0.83526874  1
  Ni  Ni42  1  0.49994490  0.83560158  0.49954524  1
  Ni  Ni43  1  0.33369010  0.66630532  0.66614784  1
  Ni  Ni44  1  0.50148635  0.83533905  0.83507493  1
  Ni  Ni45  1  0.83352774  0.16746829  0.49993888  1
  Ni  Ni46  1  0.66774676  0.00208846  0.66749428  1
  Ni  Ni47  1  0.83357930  0.16744265  0.83434507  1
  Ni  Ni48  1  0.83478443  0.49948362  0.49937686  1
  Ni  Ni49  1  0.66725054  0.33231983  0.66734849  1
  Ni  Ni50  1  0.83482663  0.49932780  0.83535687  1
  Ni  Ni51  1  0.83475050  0.83496020  0.50013095  1
  Cr  Cr52  1  0.66759329  0.66798332  0.66816108  1
  Ni  Ni53  1  0.83342461  0.83515852  0.83468178  1
" 