6404,Ni90Fe2Cr7_6,-236.653878665988, 170.958378512522,Ni90Fe2Cr7,"# generated using pymatgen
 data_Cr5FeNi48
_symmetry_space_group_name_H-M   'P 1'
_cell_length_a   7.46427847
_cell_length_b   7.46427847
_cell_length_c   10.55608384
_cell_angle_alpha   90.00000000
_cell_angle_beta   90.00000000
_cell_angle_gamma   90.00000000
_symmetry_Int_Tables_number   1
_chemical_formula_structural   Cr5FeNi48
_chemical_formula_sum   'Cr5 Fe1 Ni48'
_cell_volume   588.13699345
_cell_formula_units_Z   1
loop_
 _symmetry_equiv_pos_site_id
 _symmetry_equiv_pos_as_xyz
  1  'x, y, z'
loop_
 _atom_site_type_symbol
 _atom_site_label
 _atom_site_symmetry_multiplicity
 _atom_site_fract_x
 _atom_site_fract_y
 _atom_site_fract_z
 _atom_site_occupancy
  Ni  Ni0  1  0.00227237  0.00152927  0.00038309  1
  Ni  Ni1  1  0.16763088  0.16754453  0.16631788  1
  Ni  Ni2  1  0.00035523  0.00021332  0.33321610  1
  Ni  Ni3  1  0.00121234  0.33317847  0.00126474  1
  Ni  Ni4  1  0.16752959  0.49915688  0.16812465  1
  Ni  Ni5  1  0.99953548  0.33471761  0.33229499  1
  Cr  Cr6  1  0.00217572  0.66534922  0.99905080  1
  Ni  Ni7  1  0.17001078  0.83394029  0.16810778  1
  Ni  Ni8  1  0.00119585  0.66563129  0.33469125  1
  Ni  Ni9  1  0.33379378  0.00031414  0.99994540  1
  Ni  Ni10  1  0.49992842  0.16625511  0.16690093  1
  Ni  Ni11  1  0.33471894  0.99959259  0.33290832  1
  Ni  Ni12  1  0.33348626  0.33347955  1.00012263  1
  Fe  Fe13  1  0.49991758  0.50001984  0.16699517  1
  Ni  Ni14  1  0.33440151  0.33426874  0.33268514  1
  Ni  Ni15  1  0.33488250  0.66668452  0.00058114  1
  Ni  Ni16  1  0.49848110  0.83371783  0.16671956  1
  Ni  Ni17  1  0.33326840  0.66674600  0.33323811  1
  Ni  Ni18  1  0.66457488  0.00057207  0.00023103  1
  Ni  Ni19  1  0.83302111  0.16896604  0.16706528  1
  Ni  Ni20  1  0.66561008  0.00119262  0.33453720  1
  Ni  Ni21  1  0.66564200  0.33420972  0.00115870  1
  Ni  Ni22  1  0.83289577  0.49791177  0.16747232  1
  Ni  Ni23  1  0.66671911  0.33325669  0.33383239  1
  Ni  Ni24  1  0.66448005  0.66571381  0.99898637  1
  Cr  Cr25  1  0.83141134  0.83359114  0.16714765  1
  Ni  Ni26  1  0.66596928  0.66589442  0.33441608  1
  Cr  Cr27  1  0.16757259  0.16767873  0.50087561  1
  Ni  Ni28  1  0.00159638  0.99819670  0.66704326  1
  Ni  Ni29  1  0.16883689  0.16730458  0.83392350  1
  Ni  Ni30  1  0.16726648  0.50167629  0.50020326  1
  Ni  Ni31  1  0.00025481  0.33566460  0.66709315  1
  Ni  Ni32  1  0.16823250  0.49920434  0.83229816  1
  Ni  Ni33  1  0.16742956  0.83183229  0.49974871  1
  Ni  Ni34  1  0.00049513  0.66667900  0.66665692  1
  Ni  Ni35  1  0.16846856  0.83406407  0.83272968  1
  Ni  Ni36  1  0.50039182  0.16809868  0.49950945  1
  Ni  Ni37  1  0.33296230  0.99926175  0.66782503  1
  Ni  Ni38  1  0.49756097  0.16799267  0.83401737  1
  Ni  Ni39  1  0.50001248  0.50053121  0.49962217  1
  Ni  Ni40  1  0.33479015  0.33475181  0.66785893  1
  Ni  Ni41  1  0.49991903  0.50043489  0.83425346  1
  Ni  Ni42  1  0.49914906  0.83203921  0.49902603  1
  Ni  Ni43  1  0.33347717  0.66657314  0.66684281  1
  Ni  Ni44  1  0.49909747  0.83219584  0.83475565  1
  Ni  Ni45  1  0.83306549  0.16816681  0.49848656  1
  Cr  Cr46  1  0.66516003  0.99972453  0.66505442  1
  Cr  Cr47  1  0.83437211  0.16816057  0.83488632  1
  Ni  Ni48  1  0.83326043  0.50035381  0.50037088  1
  Ni  Ni49  1  0.66555005  0.33602173  0.66563230  1
  Ni  Ni50  1  0.83232259  0.50088097  0.83271668  1
  Ni  Ni51  1  0.83401783  0.83204151  0.49925388  1
  Ni  Ni52  1  0.66659817  0.66515335  0.66721693  1
  Ni  Ni53  1  0.83303624  0.83168604  0.83372080  1
" 