8443,Ni90Fe4Cr4_13,-237.75960277014, 176.521439878795,Ni90Fe4Cr4,"# generated using pymatgen
 data_Cr2FeNi24
_symmetry_space_group_name_H-M   'P 1'
_cell_length_a   7.46042615
_cell_length_b   7.46042615
_cell_length_c   10.55063585
_cell_angle_alpha   90.00000000
_cell_angle_beta   90.00000000
_cell_angle_gamma   90.00000000
_symmetry_Int_Tables_number   1
_chemical_formula_structural   Cr2FeNi24
_chemical_formula_sum   'Cr4 Fe2 Ni48'
_cell_volume   587.22685092
_cell_formula_units_Z   2
loop_
 _symmetry_equiv_pos_site_id
 _symmetry_equiv_pos_as_xyz
  1  'x, y, z'
loop_
 _atom_site_type_symbol
 _atom_site_label
 _atom_site_symmetry_multiplicity
 _atom_site_fract_x
 _atom_site_fract_y
 _atom_site_fract_z
 _atom_site_occupancy
  Ni  Ni0  1  0.99944913  0.99885528  0.00108159  1
  Ni  Ni1  1  0.16799108  0.16756555  0.16677014  1
  Cr  Cr2  1  0.00183244  0.99989127  0.33401585  1
  Fe  Fe3  1  0.99962185  0.33461383  0.00126196  1
  Ni  Ni4  1  0.16677939  0.50011555  0.16740813  1
  Ni  Ni5  1  0.00066502  0.33584085  0.33348582  1
  Ni  Ni6  1  0.00062248  0.66798103  0.00062344  1
  Ni  Ni7  1  0.16769640  0.83365150  0.16657501  1
  Ni  Ni8  1  0.00059480  0.66538529  0.33365002  1
  Ni  Ni9  1  0.33408281  1.00004246  0.00161078  1
  Ni  Ni10  1  0.49943015  0.16764364  0.16634615  1
  Ni  Ni11  1  0.33352318  0.00058587  0.33359821  1
  Ni  Ni12  1  0.33510976  0.33450779  0.00126005  1
  Ni  Ni13  1  0.50082150  0.50021745  0.16751392  1
  Ni  Ni14  1  0.33375628  0.33409354  0.33382675  1
  Ni  Ni15  1  0.33291948  0.66678258  1.00009569  1
  Ni  Ni16  1  0.49983003  0.83346932  0.16671205  1
  Ni  Ni17  1  0.33334697  0.66665282  0.33380661  1
  Ni  Ni18  1  0.66779951  0.00104379  1.00026640  1
  Ni  Ni19  1  0.83391006  0.16856270  0.16586792  1
  Cr  Cr20  1  0.66569391  0.00060641  0.33330203  1
  Ni  Ni21  1  0.66660409  0.33333237  0.00044542  1
  Ni  Ni22  1  0.83372861  0.50051599  0.16757847  1
  Ni  Ni23  1  0.66690836  0.33566861  0.33375603  1
  Ni  Ni24  1  0.66778832  0.66695540  0.00049643  1
  Ni  Ni25  1  0.83380260  0.83226046  0.16553102  1
  Ni  Ni26  1  0.66738922  0.66515821  0.33377136  1
  Ni  Ni27  1  0.16825369  0.16766774  0.50108228  1
  Ni  Ni28  1  0.99954588  0.00118748  0.66631458  1
  Cr  Cr29  1  0.16728379  0.16694563  0.83361882  1
  Ni  Ni30  1  0.16723424  0.49903097  0.49968206  1
  Ni  Ni31  1  0.99971926  0.33274561  0.66658370  1
  Ni  Ni32  1  0.16776579  0.50118546  0.83424248  1
  Ni  Ni33  1  0.16823662  0.83463286  0.50044809  1
  Cr  Cr34  1  0.00100303  0.66733235  0.66727685  1
  Ni  Ni35  1  0.16769493  0.83313715  0.83431246  1
  Ni  Ni36  1  0.49884538  0.16765652  0.50120993  1
  Ni  Ni37  1  0.33446640  0.99998488  0.66612573  1
  Ni  Ni38  1  0.50204151  0.16708558  0.83377847  1
  Ni  Ni39  1  0.50103643  0.50020255  0.50049619  1
  Ni  Ni40  1  0.33469291  0.33435022  0.66624987  1
  Ni  Ni41  1  0.50077930  0.50060268  0.83332162  1
  Ni  Ni42  1  0.50004718  0.83347361  0.50125917  1
  Ni  Ni43  1  0.33497929  0.66699645  0.66742803  1
  Ni  Ni44  1  0.50077496  0.83364309  0.83335687  1
  Fe  Fe45  1  0.83387086  0.16877409  0.50219500  1
  Ni  Ni46  1  0.66731619  0.00090399  0.66753401  1
  Ni  Ni47  1  0.83228061  0.16701437  0.83303615  1
  Ni  Ni48  1  0.83306268  0.50022346  0.49928505  1
  Ni  Ni49  1  0.66691461  0.33325887  0.66712632  1
  Ni  Ni50  1  0.83278670  0.49991992  0.83447202  1
  Ni  Ni51  1  0.83304808  0.83244128  0.50126726  1
  Ni  Ni52  1  0.66572335  0.66717080  0.66706425  1
  Ni  Ni53  1  0.83286257  0.83439653  0.83453919  1
" 