7601,Ni90Fe3Cr5_4,-237.784443459481, 177.028055773655,Ni90Fe3Cr5,"# generated using pymatgen
 data_Cr2FeNi24
_symmetry_space_group_name_H-M   'P 1'
_cell_length_a   7.45995524
_cell_length_b   7.45995524
_cell_length_c   10.54996987
_cell_angle_alpha   90.00000000
_cell_angle_beta   90.00000000
_cell_angle_gamma   90.00000000
_symmetry_Int_Tables_number   1
_chemical_formula_structural   Cr2FeNi24
_chemical_formula_sum   'Cr4 Fe2 Ni48'
_cell_volume   587.11565740
_cell_formula_units_Z   2
loop_
 _symmetry_equiv_pos_site_id
 _symmetry_equiv_pos_as_xyz
  1  'x, y, z'
loop_
 _atom_site_type_symbol
 _atom_site_label
 _atom_site_symmetry_multiplicity
 _atom_site_fract_x
 _atom_site_fract_y
 _atom_site_fract_z
 _atom_site_occupancy
  Ni  Ni0  1  0.00073166  1.00001017  0.00069677  1
  Ni  Ni1  1  0.16692602  0.16740428  0.16754833  1
  Ni  Ni2  1  0.00275454  0.99936038  0.33297652  1
  Ni  Ni3  1  0.00179425  0.33410645  1.00024378  1
  Ni  Ni4  1  0.16734936  0.50054430  0.16683684  1
  Ni  Ni5  1  0.00164929  0.33478814  0.33286621  1
  Ni  Ni6  1  0.00049484  0.66729711  1.00046838  1
  Ni  Ni7  1  0.16724467  0.83347981  0.16818521  1
  Ni  Ni8  1  0.00058628  0.66726793  0.33412543  1
  Ni  Ni9  1  0.33353071  1.00033421  0.00048767  1
  Ni  Ni10  1  0.49851297  0.16720905  0.16777189  1
  Ni  Ni11  1  0.33236650  0.00048297  0.33430545  1
  Ni  Ni12  1  0.33239722  0.33370985  0.00063780  1
  Ni  Ni13  1  0.49915375  0.50184298  0.16829355  1
  Ni  Ni14  1  0.33362346  0.33392789  0.33342111  1
  Ni  Ni15  1  0.33334908  0.66737986  1.00024745  1
  Ni  Ni16  1  0.49949660  0.83241142  0.16634814  1
  Ni  Ni17  1  0.33356759  0.66710986  0.33382734  1
  Ni  Ni18  1  0.66717282  0.99905690  1.00031682  1
  Ni  Ni19  1  0.83597560  0.16710261  0.16711231  1
  Cr  Cr20  1  0.66636983  0.99920424  0.33166052  1
  Cr  Cr21  1  0.66731710  0.33398279  1.00046711  1
  Ni  Ni22  1  0.83491417  0.50153922  0.16913572  1
  Ni  Ni23  1  0.66603417  0.33596999  0.33346374  1
  Ni  Ni24  1  0.66757204  0.66845742  0.00071522  1
  Ni  Ni25  1  0.83473308  0.83280414  0.16619409  1
  Ni  Ni26  1  0.66731219  0.66588843  0.33368481  1
  Ni  Ni27  1  0.16716316  0.16773136  0.49960347  1
  Ni  Ni28  1  0.00138840  0.99937750  0.66780999  1
  Ni  Ni29  1  0.16589289  0.16630490  0.83440726  1
  Ni  Ni30  1  0.16692620  0.50082551  0.49980216  1
  Ni  Ni31  1  1.00021073  0.33477831  0.66822395  1
  Ni  Ni32  1  0.16631639  0.50156343  0.83493666  1
  Fe  Fe33  1  0.16800117  0.83398301  0.50047494  1
  Ni  Ni34  1  0.00055553  0.66729776  0.66681600  1
  Ni  Ni35  1  0.16714957  0.83356130  0.83278054  1
  Ni  Ni36  1  0.49906476  0.16718448  0.50048310  1
  Ni  Ni37  1  0.33375509  0.99915026  0.66665559  1
  Ni  Ni38  1  0.50052555  0.16522082  0.83315463  1
  Ni  Ni39  1  0.49984048  0.50204374  0.49961080  1
  Cr  Cr40  1  0.33353968  0.33401306  0.66825923  1
  Ni  Ni41  1  0.50025645  0.50281352  0.83368193  1
  Ni  Ni42  1  0.50091246  0.83228241  0.50135584  1
  Ni  Ni43  1  0.33355383  0.66847652  0.66729458  1
  Ni  Ni44  1  0.50058071  0.83340591  0.83361222  1
  Cr  Cr45  1  0.83502686  0.16688631  0.50145536  1
  Ni  Ni46  1  0.66640511  0.99946624  0.66847938  1
  Ni  Ni47  1  0.83500083  0.16599304  0.83279907  1
  Fe  Fe48  1  0.83333634  0.50120339  0.50047870  1
  Ni  Ni49  1  0.66738881  0.33465655  0.66748722  1
  Ni  Ni50  1  0.83484829  0.50157970  0.83179686  1
  Ni  Ni51  1  0.83407915  0.83200182  0.50116641  1
  Ni  Ni52  1  0.66730024  0.66732780  0.66708486  1
  Ni  Ni53  1  0.83372110  0.83386854  0.83392063  1
" 