483,Ni90Fe4Cr4_18,-237.742896575648, 175.779792506072,Ni90Fe4Cr4,"# generated using pymatgen
 data_Cr2FeNi24
_symmetry_space_group_name_H-M   'P 1'
_cell_length_a   7.45821243
_cell_length_b   7.45821243
_cell_length_c   10.54750517
_cell_angle_alpha   90.00000000
_cell_angle_beta   90.00000000
_cell_angle_gamma   90.00000000
_symmetry_Int_Tables_number   1
_chemical_formula_structural   Cr2FeNi24
_chemical_formula_sum   'Cr4 Fe2 Ni48'
_cell_volume   586.70426555
_cell_formula_units_Z   2
loop_
 _symmetry_equiv_pos_site_id
 _symmetry_equiv_pos_as_xyz
  1  'x, y, z'
loop_
 _atom_site_type_symbol
 _atom_site_label
 _atom_site_symmetry_multiplicity
 _atom_site_fract_x
 _atom_site_fract_y
 _atom_site_fract_z
 _atom_site_occupancy
  Ni  Ni0  1  0.00207135  1.00048479  0.00097419  1
  Ni  Ni1  1  0.16595266  0.16724370  0.16712188  1
  Ni  Ni2  1  1.00003483  1.00024824  0.33287554  1
  Ni  Ni3  1  0.00100764  0.33413617  0.00167627  1
  Ni  Ni4  1  0.16616406  0.49980701  0.16862751  1
  Fe  Fe5  1  0.99959677  0.33336918  0.33423705  1
  Ni  Ni6  1  0.99931162  0.66716312  1.00043411  1
  Ni  Ni7  1  0.16608011  0.83469717  0.16763623  1
  Ni  Ni8  1  0.99920084  0.66660785  0.33306748  1
  Ni  Ni9  1  0.33116366  0.00138097  0.99993551  1
  Cr  Cr10  1  0.50036707  0.16853901  0.16685978  1
  Ni  Ni11  1  0.33339613  0.00219532  0.33354279  1
  Ni  Ni12  1  0.33258927  0.33373297  0.99958370  1
  Ni  Ni13  1  0.50170523  0.50100414  0.16788509  1
  Ni  Ni14  1  0.33322298  0.33450352  0.33465228  1
  Cr  Cr15  1  0.33383383  0.66717631  0.00138527  1
  Ni  Ni16  1  0.50070859  0.83258098  0.16943574  1
  Fe  Fe17  1  0.33504192  0.66695143  0.33383435  1
  Cr  Cr18  1  0.66847605  0.99908285  0.99991485  1
  Ni  Ni19  1  0.83609860  0.16827036  0.16828453  1
  Ni  Ni20  1  0.66843140  0.99982027  0.33514183  1
  Ni  Ni21  1  0.66823417  0.33648963  0.99986851  1
  Ni  Ni22  1  0.83384252  0.50071193  0.16681951  1
  Ni  Ni23  1  0.66684655  0.33523419  0.33455697  1
  Ni  Ni24  1  0.66904836  0.66561562  0.00097830  1
  Ni  Ni25  1  0.83504903  0.83281042  0.16794584  1
  Ni  Ni26  1  0.66875295  0.66669180  0.33356063  1
  Ni  Ni27  1  0.16742041  0.16830214  0.50046255  1
  Ni  Ni28  1  0.99957623  0.00173593  0.66809398  1
  Ni  Ni29  1  0.16695902  0.16740402  0.83421445  1
  Ni  Ni30  1  0.16693425  0.49919028  0.50049281  1
  Ni  Ni31  1  0.00085985  0.33399446  0.66609303  1
  Ni  Ni32  1  0.16605726  0.49975208  0.83275212  1
  Cr  Cr33  1  0.16673737  0.83374827  0.50158998  1
  Ni  Ni34  1  0.99965464  0.66601152  0.66834483  1
  Ni  Ni35  1  0.16628139  0.83465270  0.83332867  1
  Ni  Ni36  1  0.50058284  0.16740835  0.50097443  1
  Ni  Ni37  1  0.33469886  0.00190425  0.66824337  1
  Ni  Ni38  1  0.49989710  0.16836178  0.83303489  1
  Ni  Ni39  1  0.50106684  0.50034023  0.50054388  1
  Ni  Ni40  1  0.33375288  0.33403034  0.66732842  1
  Ni  Ni41  1  0.50169590  0.49968908  0.83341165  1
  Ni  Ni42  1  0.50221870  0.83412820  0.50032603  1
  Ni  Ni43  1  0.33473703  0.66576194  0.66693747  1
  Ni  Ni44  1  0.50046926  0.83375119  0.83203434  1
  Ni  Ni45  1  0.83359848  0.16724591  0.50028941  1
  Ni  Ni46  1  0.66747718  0.00072233  0.66627062  1
  Ni  Ni47  1  0.83491526  0.16861200  0.83324487  1
  Ni  Ni48  1  0.83371538  0.50088274  0.50076481  1
  Ni  Ni49  1  0.66718111  0.33402860  0.66720630  1
  Ni  Ni50  1  0.83403553  0.50036649  0.83420794  1
  Ni  Ni51  1  0.83280567  0.83352859  0.50077114  1
  Ni  Ni52  1  0.66744562  0.66703130  0.66723063  1
  Ni  Ni53  1  0.83498258  0.83285113  0.83295646  1
" 