1625,Ni90Fe2Cr7_10,-236.651778050928, 170.090851862105,Ni90Fe2Cr7,"# generated using pymatgen
 data_Cr5FeNi48
_symmetry_space_group_name_H-M   'P 1'
_cell_length_a   7.46348536
_cell_length_b   7.46348536
_cell_length_c   10.55496222
_cell_angle_alpha   90.00000000
_cell_angle_beta   90.00000000
_cell_angle_gamma   90.00000000
_symmetry_Int_Tables_number   1
_chemical_formula_structural   Cr5FeNi48
_chemical_formula_sum   'Cr5 Fe1 Ni48'
_cell_volume   587.94953841
_cell_formula_units_Z   1
loop_
 _symmetry_equiv_pos_site_id
 _symmetry_equiv_pos_as_xyz
  1  'x, y, z'
loop_
 _atom_site_type_symbol
 _atom_site_label
 _atom_site_symmetry_multiplicity
 _atom_site_fract_x
 _atom_site_fract_y
 _atom_site_fract_z
 _atom_site_occupancy
  Ni  Ni0  1  0.99883682  0.00119332  0.00219092  1
  Ni  Ni1  1  0.16679985  0.16690830  0.16698652  1
  Ni  Ni2  1  0.00027991  0.00152440  0.33327981  1
  Ni  Ni3  1  0.99994933  0.33344593  0.00096456  1
  Ni  Ni4  1  0.16886681  0.49815852  0.16660486  1
  Ni  Ni5  1  0.00046033  0.33240981  0.33327302  1
  Cr  Cr6  1  0.99838409  0.66594593  0.00116808  1
  Ni  Ni7  1  0.16882576  0.83561886  0.16698470  1
  Cr  Cr8  1  0.99986241  0.66684356  0.33400227  1
  Ni  Ni9  1  0.33609882  0.00164578  0.00207507  1
  Ni  Ni10  1  0.50048108  0.16706735  0.16697730  1
  Ni  Ni11  1  0.33430442  0.00084596  0.33362713  1
  Ni  Ni12  1  0.33500258  0.33315737  0.00089666  1
  Ni  Ni13  1  0.50077019  0.50028529  0.16714541  1
  Ni  Ni14  1  0.33413939  0.33300168  0.33363710  1
  Fe  Fe15  1  0.33596143  0.66606058  0.00117470  1
  Ni  Ni16  1  0.50060377  0.83333154  0.16686232  1
  Ni  Ni17  1  0.33496360  0.66681338  0.33287927  1
  Ni  Ni18  1  0.66579093  0.00028207  0.99996455  1
  Ni  Ni19  1  0.83351496  0.16713755  0.16652896  1
  Ni  Ni20  1  0.66611099  0.00061476  0.33326523  1
  Ni  Ni21  1  0.66587404  0.33348856  1.00014377  1
  Ni  Ni22  1  0.83146617  0.49825325  0.16724414  1
  Ni  Ni23  1  0.66610881  0.33309936  0.33325673  1
  Ni  Ni24  1  0.66606677  0.66692214  1.00014678  1
  Ni  Ni25  1  0.83152596  0.83540135  0.16701072  1
  Ni  Ni26  1  0.66547620  0.66698935  0.33367210  1
  Ni  Ni27  1  0.16663241  0.16693210  0.50024656  1
  Ni  Ni28  1  0.99836428  0.00149050  0.66516060  1
  Cr  Cr29  1  0.16640189  0.16782888  0.83316038  1
  Ni  Ni30  1  0.16911847  0.49830617  0.50058307  1
  Ni  Ni31  1  0.99952663  0.33320327  0.66641422  1
  Ni  Ni32  1  0.16884607  0.49835851  0.83356005  1
  Ni  Ni33  1  0.16910712  0.83545180  0.50024236  1
  Cr  Cr34  1  0.99880063  0.66592511  0.66560570  1
  Cr  Cr35  1  0.16921007  0.83472711  0.83347838  1
  Ni  Ni36  1  0.50061957  0.16710796  0.50026517  1
  Ni  Ni37  1  0.33618858  0.00076070  0.66501271  1
  Ni  Ni38  1  0.50182133  0.16706184  0.83350898  1
  Ni  Ni39  1  0.50047083  0.50054236  0.49997721  1
  Ni  Ni40  1  0.33507062  0.33386865  0.66616616  1
  Ni  Ni41  1  0.50087573  0.50031801  0.83363342  1
  Ni  Ni42  1  0.50029175  0.83307997  0.50027753  1
  Ni  Ni43  1  0.33590839  0.66591364  0.66686488  1
  Ni  Ni44  1  0.50230539  0.83326416  0.83360360  1
  Ni  Ni45  1  0.83350825  0.16714877  0.50025452  1
  Ni  Ni46  1  0.66605656  0.00060792  0.66751716  1
  Ni  Ni47  1  0.83194545  0.16715916  0.83392176  1
  Ni  Ni48  1  0.83109530  0.49797879  0.49998407  1
  Ni  Ni49  1  0.66610956  0.33319015  0.66734277  1
  Ni  Ni50  1  0.83136488  0.49824985  0.83349179  1
  Ni  Ni51  1  0.83117233  0.83567325  0.50021648  1
  Ni  Ni52  1  0.66529264  0.66692482  0.66693978  1
  Ni  Ni53  1  0.83025665  0.83536741  0.83349486  1
" 