4278,Ni90Fe2Cr7_9,-236.670016915326, 171.253190074578,Ni90Fe2Cr7,"# generated using pymatgen
 data_Cr5FeNi48
_symmetry_space_group_name_H-M   'P 1'
_cell_length_a   7.46377719
_cell_length_b   7.46377719
_cell_length_c   10.55537493
_cell_angle_alpha   90.00000000
_cell_angle_beta   90.00000000
_cell_angle_gamma   90.00000000
_symmetry_Int_Tables_number   1
_chemical_formula_structural   Cr5FeNi48
_chemical_formula_sum   'Cr5 Fe1 Ni48'
_cell_volume   588.01850929
_cell_formula_units_Z   1
loop_
 _symmetry_equiv_pos_site_id
 _symmetry_equiv_pos_as_xyz
  1  'x, y, z'
loop_
 _atom_site_type_symbol
 _atom_site_label
 _atom_site_symmetry_multiplicity
 _atom_site_fract_x
 _atom_site_fract_y
 _atom_site_fract_z
 _atom_site_occupancy
  Ni  Ni0  1  0.99922402  0.00102046  0.99983201  1
  Ni  Ni1  1  0.16573325  0.16765470  0.16779363  1
  Ni  Ni2  1  0.99960586  0.00184449  0.33232217  1
  Ni  Ni3  1  0.99966873  0.33367208  1.00004955  1
  Ni  Ni4  1  0.16670330  0.50055980  0.16714050  1
  Ni  Ni5  1  0.00037714  0.33355156  0.33377619  1
  Ni  Ni6  1  0.00069613  0.66604351  0.00049367  1
  Ni  Ni7  1  0.16571169  0.83265492  0.16778285  1
  Ni  Ni8  1  0.00101567  0.66521286  0.33230674  1
  Cr  Cr9  1  0.33185565  0.99868115  0.00058971  1
  Ni  Ni10  1  0.50154653  0.16797835  0.16818648  1
  Ni  Ni11  1  0.33437648  0.00132589  0.33313038  1
  Fe  Fe12  1  0.33200086  0.33575737  0.00106593  1
  Ni  Ni13  1  0.49952379  0.49909402  0.16561568  1
  Ni  Ni14  1  0.33313500  0.33354842  0.33285921  1
  Ni  Ni15  1  0.33346811  0.66583802  0.00026287  1
  Ni  Ni16  1  0.50023281  0.83361486  0.16697712  1
  Ni  Ni17  1  0.33312445  0.66581357  0.33249674  1
  Ni  Ni18  1  0.66886067  0.99957219  0.00160635  1
  Ni  Ni19  1  0.83334549  0.16699337  0.16672339  1
  Ni  Ni20  1  0.66666039  0.00187089  0.33299419  1
  Ni  Ni21  1  0.66896744  0.33486890  0.00120756  1
  Ni  Ni22  1  0.83437917  0.49924411  0.16616837  1
  Ni  Ni23  1  0.66713717  0.33209405  0.33377001  1
  Ni  Ni24  1  0.66649062  0.66630024  0.99962382  1
  Ni  Ni25  1  0.83477909  0.83442690  0.16582095  1
  Cr  Cr26  1  0.66710446  0.66619066  0.33405753  1
  Ni  Ni27  1  0.16699904  0.16846359  0.50063605  1
  Ni  Ni28  1  0.00125120  0.00167570  0.66845208  1
  Ni  Ni29  1  0.16405655  0.16774791  0.83209782  1
  Ni  Ni30  1  0.16700023  0.49869115  0.49995846  1
  Ni  Ni31  1  0.00039008  0.33367869  0.66685747  1
  Ni  Ni32  1  0.16669514  0.50065095  0.83355971  1
  Cr  Cr33  1  0.16624711  0.83300131  0.49981010  1
  Ni  Ni34  1  0.99945640  0.66528011  0.66778983  1
  Ni  Ni35  1  0.16561302  0.83233858  0.83262933  1
  Ni  Ni36  1  0.49932696  0.16828151  0.49892437  1
  Ni  Ni37  1  0.33184032  0.00033107  0.66667293  1
  Cr  Cr38  1  0.50109719  0.16966245  0.83379982  1
  Ni  Ni39  1  0.49913149  0.49881500  0.50152357  1
  Ni  Ni40  1  0.33214260  0.33463006  0.66675042  1
  Ni  Ni41  1  0.50044239  0.50188622  0.83355709  1
  Ni  Ni42  1  0.49980644  0.83352469  0.50040100  1
  Ni  Ni43  1  0.33442765  0.66577225  0.66784669  1
  Ni  Ni44  1  0.50020544  0.83023075  0.83328782  1
  Ni  Ni45  1  0.83434655  0.16786744  0.49934379  1
  Cr  Cr46  1  0.66786758  0.99917378  0.66598230  1
  Ni  Ni47  1  0.83589863  0.16801546  0.83459373  1
  Ni  Ni48  1  0.83457311  0.49924140  0.50130138  1
  Ni  Ni49  1  0.66807496  0.33632864  0.66581434  1
  Ni  Ni50  1  0.83348702  0.50024375  0.83328798  1
  Ni  Ni51  1  0.83417095  0.83357001  0.50021798  1
  Ni  Ni52  1  0.66672914  0.66489007  0.66739983  1
  Ni  Ni53  1  0.83482946  0.83241078  0.83468114  1
" 