2350,Ni90Fe4Cr4_14,-237.747466005481, 175.640258846749,Ni90Fe4Cr4,"# generated using pymatgen
 data_Cr2FeNi24
_symmetry_space_group_name_H-M   'P 1'
_cell_length_a   7.45844898
_cell_length_b   7.45844898
_cell_length_c   10.54783971
_cell_angle_alpha   90.00000000
_cell_angle_beta   90.00000000
_cell_angle_gamma   90.00000000
_symmetry_Int_Tables_number   1
_chemical_formula_structural   Cr2FeNi24
_chemical_formula_sum   'Cr4 Fe2 Ni48'
_cell_volume   586.76009239
_cell_formula_units_Z   2
loop_
 _symmetry_equiv_pos_site_id
 _symmetry_equiv_pos_as_xyz
  1  'x, y, z'
loop_
 _atom_site_type_symbol
 _atom_site_label
 _atom_site_symmetry_multiplicity
 _atom_site_fract_x
 _atom_site_fract_y
 _atom_site_fract_z
 _atom_site_occupancy
  Ni  Ni0  1  0.99945421  0.99943350  0.00178298  1
  Ni  Ni1  1  0.16690717  0.16687132  0.16776646  1
  Ni  Ni2  1  0.00099252  0.00092365  0.33364192  1
  Ni  Ni3  1  0.00069062  0.33385769  1.00032008  1
  Ni  Ni4  1  0.16837122  0.50072519  0.16737073  1
  Ni  Ni5  1  0.00090695  0.33288499  0.33498506  1
  Ni  Ni6  1  0.00171906  0.66847362  0.99963474  1
  Ni  Ni7  1  0.16764430  0.83410770  0.16668249  1
  Ni  Ni8  1  0.00226010  0.66801699  0.33477178  1
  Ni  Ni9  1  0.33389291  0.00061568  0.00220318  1
  Ni  Ni10  1  0.50073948  0.16668022  0.16707072  1
  Ni  Ni11  1  0.33390583  0.99975200  0.33410393  1
  Ni  Ni12  1  0.33506104  0.33505528  0.00238903  1
  Ni  Ni13  1  0.49944227  0.50107186  0.16735937  1
  Fe  Fe14  1  0.33411353  0.33376872  0.33380530  1
  Ni  Ni15  1  0.33274425  0.66606758  0.00122839  1
  Ni  Ni16  1  0.50035243  0.83392119  0.16737427  1
  Ni  Ni17  1  0.33373353  0.66785780  0.33387650  1
  Ni  Ni18  1  0.66843328  0.00170747  0.00181955  1
  Ni  Ni19  1  0.83408573  0.16601877  0.16692781  1
  Ni  Ni20  1  0.66685178  0.00124443  0.33365559  1
  Ni  Ni21  1  0.66598862  0.33273784  0.99903059  1
  Cr  Cr22  1  0.83392340  0.50034518  0.16727384  1
  Ni  Ni23  1  0.66673216  0.33271256  0.33499661  1
  Ni  Ni24  1  0.66723919  0.66733979  0.00091826  1
  Ni  Ni25  1  0.83373681  0.83534814  0.16801020  1
  Ni  Ni26  1  0.66575573  0.66786739  0.33478271  1
  Ni  Ni27  1  0.16555438  0.16554375  0.49949567  1
  Ni  Ni28  1  0.99948668  0.99956381  0.66619860  1
  Cr  Cr29  1  0.16658862  0.16534053  0.83434683  1
  Ni  Ni30  1  0.16539120  0.50209645  0.49964229  1
  Ni  Ni31  1  0.99789022  0.33490121  0.66640785  1
  Ni  Ni32  1  0.16582303  0.50315031  0.83479251  1
  Ni  Ni33  1  0.16835481  0.83406632  0.50129635  1
  Ni  Ni34  1  0.00085331  0.66721010  0.66731871  1
  Ni  Ni35  1  0.16565522  0.83227210  0.83376688  1
  Ni  Ni36  1  0.50210825  0.16536654  0.50018240  1
  Ni  Ni37  1  0.33391594  0.99888177  0.66537629  1
  Ni  Ni38  1  0.50338312  0.16762123  0.83452962  1
  Ni  Ni39  1  0.50238996  0.50237653  0.49969404  1
  Cr  Cr40  1  0.33522390  0.33522438  0.66565992  1
  Ni  Ni41  1  0.50199217  0.50044320  0.83478638  1
  Ni  Ni42  1  0.49973928  0.83388921  0.50060447  1
  Ni  Ni43  1  0.33279465  0.66776082  0.66661635  1
  Cr  Cr44  1  0.49958099  0.83455976  0.83369009  1
  Ni  Ni45  1  0.83405225  0.16834061  0.50080882  1
  Ni  Ni46  1  0.66832853  0.00184138  0.66621655  1
  Ni  Ni47  1  0.83252617  0.16744288  0.83399034  1
  Ni  Ni48  1  0.83388341  0.49972918  0.50102131  1
  Ni  Ni49  1  0.66885112  0.33379954  0.66769554  1
  Ni  Ni50  1  0.83389933  0.50054956  0.83355385  1
  Fe  Fe51  1  0.83387421  0.83387518  0.50013554  1
  Ni  Ni52  1  0.66810170  0.66612978  0.66600653  1
  Ni  Ni53  1  0.83520695  0.83374480  0.83351168  1
" 