5421,Ni90Fe3Cr5_11,-237.833561824966, 176.922123023771,Ni90Fe3Cr5,"# generated using pymatgen
 data_Cr2FeNi24
_symmetry_space_group_name_H-M   'P 1'
_cell_length_a   7.45759473
_cell_length_b   7.45759473
_cell_length_c   10.54663161
_cell_angle_alpha   90.00000000
_cell_angle_beta   90.00000000
_cell_angle_gamma   90.00000000
_symmetry_Int_Tables_number   1
_chemical_formula_structural   Cr2FeNi24
_chemical_formula_sum   'Cr4 Fe2 Ni48'
_cell_volume   586.55850251
_cell_formula_units_Z   2
loop_
 _symmetry_equiv_pos_site_id
 _symmetry_equiv_pos_as_xyz
  1  'x, y, z'
loop_
 _atom_site_type_symbol
 _atom_site_label
 _atom_site_symmetry_multiplicity
 _atom_site_fract_x
 _atom_site_fract_y
 _atom_site_fract_z
 _atom_site_occupancy
  Cr  Cr0  1  1.00032278  0.00096335  1.00043447  1
  Ni  Ni1  1  0.16858375  0.16824351  0.16816050  1
  Ni  Ni2  1  0.00168680  0.00145395  0.33328484  1
  Ni  Ni3  1  0.00169989  0.33456270  0.00146534  1
  Ni  Ni4  1  0.16757002  0.50030940  0.16760724  1
  Ni  Ni5  1  1.00047085  0.33381094  0.33412920  1
  Ni  Ni6  1  0.00175362  0.66650449  0.00174021  1
  Ni  Ni7  1  0.16860048  0.83329948  0.16769325  1
  Ni  Ni8  1  0.00177184  0.66659874  0.33268567  1
  Ni  Ni9  1  0.33594145  0.00082168  0.00082614  1
  Ni  Ni10  1  0.49976092  0.16726331  0.16714821  1
  Ni  Ni11  1  0.33407280  1.00058564  0.33374328  1
  Ni  Ni12  1  0.33426834  0.33418214  0.00067945  1
  Ni  Ni13  1  0.50027894  0.50078269  0.16663040  1
  Ni  Ni14  1  0.33464879  0.33396952  0.33388746  1
  Ni  Ni15  1  0.33417254  0.66692337  1.00029069  1
  Ni  Ni16  1  0.50029412  0.83384758  0.16784912  1
  Ni  Ni17  1  0.33413883  0.66727492  0.33440111  1
  Ni  Ni18  1  0.66577377  0.00092698  0.00068497  1
  Ni  Ni19  1  0.83353833  0.16833959  0.16827420  1
  Ni  Ni20  1  0.66613794  0.00206760  0.33300769  1
  Ni  Ni21  1  0.66595592  0.33272910  0.00139931  1
  Ni  Ni22  1  0.83409577  0.50076177  0.16712230  1
  Ni  Ni23  1  0.66693288  0.33386353  0.33402894  1
  Ni  Ni24  1  0.66605629  0.66823319  0.00153222  1
  Ni  Ni25  1  0.83313026  0.83283040  0.16822620  1
  Ni  Ni26  1  0.66602714  0.66596821  0.33316026  1
  Ni  Ni27  1  0.16772361  0.16668018  0.50061849  1
  Ni  Ni28  1  0.00154692  0.00299514  0.66827393  1
  Ni  Ni29  1  0.16865113  0.16903904  0.83309841  1
  Fe  Fe30  1  0.16872086  0.49935087  0.49965323  1
  Ni  Ni31  1  0.00153088  0.33152245  0.66633271  1
  Ni  Ni32  1  0.16969206  0.49862962  0.83435957  1
  Ni  Ni33  1  0.16979906  0.83591335  0.50036550  1
  Cr  Cr34  1  0.00265222  0.66719985  0.66747329  1
  Fe  Fe35  1  0.16977200  0.83442793  0.83414478  1
  Ni  Ni36  1  0.49950553  0.16745349  0.50078905  1
  Ni  Ni37  1  0.33432367  0.00082517  0.66739981  1
  Ni  Ni38  1  0.49949688  0.16697577  0.83396428  1
  Ni  Ni39  1  0.50102376  0.50070127  0.50128297  1
  Ni  Ni40  1  0.33450834  0.33390519  0.66726061  1
  Ni  Ni41  1  0.49830247  0.50098529  0.83394672  1
  Ni  Ni42  1  0.49831960  0.83371506  0.50058277  1
  Ni  Ni43  1  0.33602055  0.66715457  0.66723416  1
  Ni  Ni44  1  0.50103435  0.83393529  0.83347699  1
  Ni  Ni45  1  0.83469587  0.16924475  0.50128478  1
  Ni  Ni46  1  0.66619760  0.00192891  0.66813719  1
  Ni  Ni47  1  0.83382027  0.16636922  0.83238490  1
  Ni  Ni48  1  0.83255032  0.49848021  0.49976273  1
  Ni  Ni49  1  0.66598421  0.33285630  0.66652553  1
  Cr  Cr50  1  0.83262084  0.49966503  0.83529205  1
  Cr  Cr51  1  0.83256017  0.83491429  0.49942741  1
  Ni  Ni52  1  0.66415018  0.66711363  0.66717072  1
  Ni  Ni53  1  0.83133544  0.83512422  0.83388860  1
" 