2928,Ni90Fe3Cr5_17,-237.775696990266, 176.483453708078,Ni90Fe3Cr5,"# generated using pymatgen
 data_Cr2FeNi24
_symmetry_space_group_name_H-M   'P 1'
_cell_length_a   7.45772623
_cell_length_b   7.45772623
_cell_length_c   10.54681758
_cell_angle_alpha   90.00000000
_cell_angle_beta   90.00000000
_cell_angle_gamma   90.00000000
_symmetry_Int_Tables_number   1
_chemical_formula_structural   Cr2FeNi24
_chemical_formula_sum   'Cr4 Fe2 Ni48'
_cell_volume   586.58953143
_cell_formula_units_Z   2
loop_
 _symmetry_equiv_pos_site_id
 _symmetry_equiv_pos_as_xyz
  1  'x, y, z'
loop_
 _atom_site_type_symbol
 _atom_site_label
 _atom_site_symmetry_multiplicity
 _atom_site_fract_x
 _atom_site_fract_y
 _atom_site_fract_z
 _atom_site_occupancy
  Ni  Ni0  1  0.99977303  0.99920056  0.00200127  1
  Ni  Ni1  1  0.16696801  0.16738388  0.16715312  1
  Ni  Ni2  1  0.99957392  1.00004296  0.33343489  1
  Ni  Ni3  1  0.00131956  0.33518551  0.00206317  1
  Ni  Ni4  1  0.16723503  0.50016654  0.16726885  1
  Ni  Ni5  1  1.00025511  0.33457644  0.33312115  1
  Ni  Ni6  1  0.00091018  0.66749203  0.99987934  1
  Ni  Ni7  1  0.16715775  0.83431939  0.16734909  1
  Ni  Ni8  1  0.00088442  0.66725864  0.33424327  1
  Fe  Fe9  1  0.33485478  0.99978179  0.00142640  1
  Ni  Ni10  1  0.50052352  0.16740718  0.16714880  1
  Ni  Ni11  1  0.33502102  1.00023772  0.33313030  1
  Ni  Ni12  1  0.33477079  0.33521207  0.00137399  1
  Ni  Ni13  1  0.50062581  0.50050296  0.16727073  1
  Ni  Ni14  1  0.33476930  0.33480991  0.33299487  1
  Ni  Ni15  1  0.33393955  0.66617639  0.99992743  1
  Ni  Ni16  1  0.50067301  0.83395414  0.16734614  1
  Ni  Ni17  1  0.33393933  0.66682486  0.33468365  1
  Ni  Ni18  1  0.66706884  1.00004473  0.00117849  1
  Ni  Ni19  1  0.83438329  0.16734203  0.16746236  1
  Ni  Ni20  1  0.66728634  0.00087095  0.33424287  1
  Ni  Ni21  1  0.66578436  0.33409866  1.00050172  1
  Ni  Ni22  1  0.83401335  0.50030592  0.16702512  1
  Ni  Ni23  1  0.66685178  0.33349776  0.33467146  1
  Ni  Ni24  1  0.66702752  0.66773669  1.00036967  1
  Ni  Ni25  1  0.83404309  0.83422430  0.16708219  1
  Ni  Ni26  1  0.66705139  0.66750742  0.33375005  1
  Cr  Cr27  1  0.16626272  0.16620156  0.49979468  1
  Ni  Ni28  1  0.99916441  0.99841515  0.66643833  1
  Cr  Cr29  1  0.16759226  0.16638402  0.83484174  1
  Ni  Ni30  1  0.16640518  0.50295789  0.50005394  1
  Ni  Ni31  1  0.99892258  0.33626203  0.66668119  1
  Ni  Ni32  1  0.16657745  0.50311906  0.83454554  1
  Ni  Ni33  1  0.16749585  0.83248322  0.50117670  1
  Ni  Ni34  1  1.00047799  0.66719970  0.66775344  1
  Ni  Ni35  1  0.16755531  0.83219278  0.83336352  1
  Ni  Ni36  1  0.50308821  0.16634028  0.50018527  1
  Ni  Ni37  1  0.33609812  0.99790663  0.66799526  1
  Ni  Ni38  1  0.50123683  0.16644860  0.83455001  1
  Ni  Ni39  1  0.50151352  0.50163841  0.49979761  1
  Cr  Cr40  1  0.33498849  0.33569937  0.66728204  1
  Ni  Ni41  1  0.50134684  0.50179410  0.83479562  1
  Ni  Ni42  1  0.50050209  0.83390468  0.50093110  1
  Ni  Ni43  1  0.33396716  0.66855940  0.66726223  1
  Ni  Ni44  1  0.50043930  0.83362265  0.83361177  1
  Ni  Ni45  1  0.83253537  0.16743363  0.50086735  1
  Ni  Ni46  1  0.66662255  0.99946290  0.66644824  1
  Cr  Cr47  1  0.83300658  0.16753662  0.83347198  1
  Ni  Ni48  1  0.83395904  0.50038638  0.50105224  1
  Fe  Fe49  1  0.66814076  0.33479601  0.66640323  1
  Ni  Ni50  1  0.83395423  0.50233355  0.83379532  1
  Ni  Ni51  1  0.83387846  0.83406477  0.50087962  1
  Ni  Ni52  1  0.66743146  0.66832105  0.66775448  1
  Ni  Ni53  1  0.83388034  0.83212131  0.83391428  1
" 