637,Ni90Fe4Cr4_0,-237.771458052426, 176.218770453911,Ni90Fe4Cr4,"# generated using pymatgen
 data_Cr2FeNi24
_symmetry_space_group_name_H-M   'P 1'
_cell_length_a   7.45856055
_cell_length_b   7.45856055
_cell_length_c   10.54799749
_cell_angle_alpha   90.00000000
_cell_angle_beta   90.00000000
_cell_angle_gamma   90.00000000
_symmetry_Int_Tables_number   1
_chemical_formula_structural   Cr2FeNi24
_chemical_formula_sum   'Cr4 Fe2 Ni48'
_cell_volume   586.78642389
_cell_formula_units_Z   2
loop_
 _symmetry_equiv_pos_site_id
 _symmetry_equiv_pos_as_xyz
  1  'x, y, z'
loop_
 _atom_site_type_symbol
 _atom_site_label
 _atom_site_symmetry_multiplicity
 _atom_site_fract_x
 _atom_site_fract_y
 _atom_site_fract_z
 _atom_site_occupancy
  Ni  Ni0  1  1.00007843  0.99847687  1.00017915  1
  Fe  Fe1  1  0.16856780  0.16678681  0.16750202  1
  Ni  Ni2  1  0.00085807  0.99937783  0.33498525  1
  Ni  Ni3  1  0.00106953  0.33502076  0.99912250  1
  Ni  Ni4  1  0.16782161  0.50031617  0.16612849  1
  Ni  Ni5  1  0.00190889  0.33412146  0.33610264  1
  Ni  Ni6  1  0.00152456  0.66814984  0.99989804  1
  Ni  Ni7  1  0.16672304  0.83425908  0.16612528  1
  Ni  Ni8  1  1.00016918  0.66820681  0.33467188  1
  Ni  Ni9  1  0.33517372  0.99936512  0.00149501  1
  Ni  Ni10  1  0.49919489  0.16701771  0.16721020  1
  Ni  Ni11  1  0.33429593  0.00173924  0.33404629  1
  Ni  Ni12  1  0.33514668  0.33505703  0.00166831  1
  Ni  Ni13  1  0.49946671  0.49963153  0.16645944  1
  Ni  Ni14  1  0.33428374  0.33274576  0.33383026  1
  Ni  Ni15  1  0.33381471  0.66719195  1.00037244  1
  Ni  Ni16  1  0.50094209  0.83506367  0.16646140  1
  Cr  Cr17  1  0.33376432  0.66721574  0.33384956  1
  Ni  Ni18  1  0.66655359  0.99986472  0.99957510  1
  Cr  Cr19  1  0.83304015  0.16621983  0.16701116  1
  Ni  Ni20  1  0.66662281  0.99994724  0.33463859  1
  Ni  Ni21  1  0.66552160  0.33365528  0.99847063  1
  Cr  Cr22  1  0.83339924  0.50233363  0.16790216  1
  Ni  Ni23  1  0.66554121  0.33351643  0.33582540  1
  Ni  Ni24  1  0.66630546  0.66823886  0.99962412  1
  Ni  Ni25  1  0.83417623  0.83426132  0.16751134  1
  Ni  Ni26  1  0.66773516  0.66832784  0.33512748  1
  Ni  Ni27  1  0.16745192  0.16705953  0.49981470  1
  Ni  Ni28  1  0.99901250  0.99926471  0.66636893  1
  Cr  Cr29  1  0.16801406  0.16658972  0.83365915  1
  Ni  Ni30  1  0.16651043  0.49980571  0.50158918  1
  Ni  Ni31  1  0.99921144  0.33507371  0.66641038  1
  Ni  Ni32  1  0.16734345  0.50203168  0.83398207  1
  Ni  Ni33  1  0.16665328  0.83485478  0.50189087  1
  Ni  Ni34  1  0.00127559  0.66732376  0.66722830  1
  Ni  Ni35  1  0.16748341  0.83237866  0.83368528  1
  Ni  Ni36  1  0.50043178  0.16705827  0.50052247  1
  Ni  Ni37  1  0.33533190  0.99920766  0.66600947  1
  Ni  Ni38  1  0.50198658  0.16706250  0.83398293  1
  Ni  Ni39  1  0.50131194  0.49970699  0.50103193  1
  Ni  Ni40  1  0.33529987  0.33529971  0.66604604  1
  Ni  Ni41  1  0.50037618  0.50052957  0.83428553  1
  Ni  Ni42  1  0.50114617  0.83495505  0.50134086  1
  Ni  Ni43  1  0.33328365  0.66715527  0.66758917  1
  Ni  Ni44  1  0.50020372  0.83413214  0.83398293  1
  Ni  Ni45  1  0.83390669  0.16722528  0.50073665  1
  Ni  Ni46  1  0.66741543  0.00131595  0.66754035  1
  Ni  Ni47  1  0.83255791  0.16722033  0.83393164  1
  Ni  Ni48  1  0.83404131  0.50052188  0.49998623  1
  Ni  Ni49  1  0.66724406  0.33308729  0.66753826  1
  Ni  Ni50  1  0.83400896  0.50055216  0.83423826  1
  Ni  Ni51  1  0.83405248  0.83394322  0.49961023  1
  Fe  Fe52  1  0.66743578  0.66732397  0.66731185  1
  Ni  Ni53  1  0.83403333  0.83393512  0.83461533  1
" 