4750,Ni90Fe3Cr5_2,-237.767469251832, 176.152898232622,Ni90Fe3Cr5,"# generated using pymatgen
 data_Cr2FeNi24
_symmetry_space_group_name_H-M   'P 1'
_cell_length_a   7.45825621
_cell_length_b   7.45825621
_cell_length_c   10.54756708
_cell_angle_alpha   90.00000000
_cell_angle_beta   90.00000000
_cell_angle_gamma   90.00000000
_symmetry_Int_Tables_number   1
_chemical_formula_structural   Cr2FeNi24
_chemical_formula_sum   'Cr4 Fe2 Ni48'
_cell_volume   586.71459570
_cell_formula_units_Z   2
loop_
 _symmetry_equiv_pos_site_id
 _symmetry_equiv_pos_as_xyz
  1  'x, y, z'
loop_
 _atom_site_type_symbol
 _atom_site_label
 _atom_site_symmetry_multiplicity
 _atom_site_fract_x
 _atom_site_fract_y
 _atom_site_fract_z
 _atom_site_occupancy
  Ni  Ni0  1  1.00033930  0.00083944  1.00015261  1
  Ni  Ni1  1  0.16720246  0.16688256  0.16730285  1
  Ni  Ni2  1  0.00078404  1.00039471  0.33490035  1
  Ni  Ni3  1  0.00073238  0.33412312  0.00084149  1
  Ni  Ni4  1  0.16707734  0.50072250  0.16722838  1
  Ni  Ni5  1  0.00201211  0.33350951  0.33329773  1
  Ni  Ni6  1  1.00006565  0.66679120  1.00052882  1
  Ni  Ni7  1  0.16698915  0.83418959  0.16695732  1
  Ni  Ni8  1  1.00031105  0.66782126  0.33301208  1
  Ni  Ni9  1  0.33438754  0.00111310  1.00052882  1
  Ni  Ni10  1  0.50054681  0.16720083  0.16687799  1
  Ni  Ni11  1  0.33335749  0.00086770  0.33301208  1
  Ni  Ni12  1  0.33400820  0.33389978  1.00051351  1
  Ni  Ni13  1  0.50070194  0.50047681  0.16753769  1
  Ni  Ni14  1  0.33306002  0.33417445  0.33333760  1
  Ni  Ni15  1  0.33441624  0.66676251  1.00058332  1
  Ni  Ni16  1  0.50045625  0.83410141  0.16722838  1
  Fe  Fe17  1  0.33383453  0.66734422  0.33332680  1
  Ni  Ni18  1  0.66705562  1.00044637  0.00084149  1
  Ni  Ni19  1  0.83399499  0.16718376  0.16798640  1
  Ni  Ni20  1  0.66766924  0.99916663  0.33329773  1
  Ni  Ni21  1  0.66701751  0.33416124  1.00035715  1
  Ni  Ni22  1  0.83397792  0.50063194  0.16687799  1
  Ni  Ni23  1  0.66670917  0.33446958  0.33279142  1
  Ni  Ni24  1  0.66727896  0.66717055  1.00051351  1
  Ni  Ni25  1  0.83429619  0.83397629  0.16730285  1
  Ni  Ni26  1  0.66700430  0.66811873  0.33333760  1
  Ni  Ni27  1  0.16506868  0.16814491  0.49986357  1
  Ni  Ni28  1  0.99858591  0.00259283  0.66664105  1
  Ni  Ni29  1  0.16612222  0.16812509  0.83470121  1
  Ni  Ni30  1  0.16957472  0.49981558  0.49961519  1
  Ni  Ni31  1  0.00276354  0.33184358  0.66772944  1
  Ni  Ni32  1  0.16835765  0.49990625  0.83466035  1
  Ni  Ni33  1  0.16735078  0.83382797  0.49891782  1
  Cr  Cr34  1  0.00116975  0.66827780  0.66873504  1
  Ni  Ni35  1  0.16742239  0.83375636  0.83562095  1
  Cr  Cr36  1  0.50208196  0.16834983  0.49993055  1
  Cr  Cr37  1  0.33290095  1.00000900  0.66873504  1
  Ni  Ni38  1  0.50147969  0.16798903  0.83521812  1
  Ni  Ni39  1  0.49875703  0.50242171  0.50067460  1
  Ni  Ni40  1  0.33219312  0.33616942  0.66810783  1
  Ni  Ni41  1  0.50026096  0.50091779  0.83322345  1
  Ni  Ni42  1  0.50136317  0.83160403  0.49961519  1
  Ni  Ni43  1  0.33608900  0.66508975  0.66627931  1
  Ni  Ni44  1  0.50127250  0.83282109  0.83466035  1
  Ni  Ni45  1  0.83575617  0.16542258  0.50051454  1
  Ni  Ni46  1  0.66933517  0.99841520  0.66772944  1
  Ni  Ni47  1  0.83416893  0.16700981  0.83329624  1
  Cr  Cr48  1  0.83282891  0.49909679  0.49993055  1
  Fe  Fe49  1  0.66735006  0.33382869  0.66906169  1
  Ni  Ni50  1  0.83318972  0.49969906  0.83521812  1
  Ni  Ni51  1  0.83303383  0.83611007  0.49986357  1
  Ni  Ni52  1  0.66500933  0.66898563  0.66810783  1
  Ni  Ni53  1  0.83305366  0.83505653  0.83470121  1
" 