5147,Ni90Fe4Cr4_2,-237.726541215465, 175.701587189394,Ni90Fe4Cr4,"# generated using pymatgen
 data_Cr2FeNi24
_symmetry_space_group_name_H-M   'P 1'
_cell_length_a   7.45715304
_cell_length_b   7.45715304
_cell_length_c   10.54600697
_cell_angle_alpha   90.00000000
_cell_angle_beta   90.00000000
_cell_angle_gamma   90.00000000
_symmetry_Int_Tables_number   1
_chemical_formula_structural   Cr2FeNi24
_chemical_formula_sum   'Cr4 Fe2 Ni48'
_cell_volume   586.45428809
_cell_formula_units_Z   2
loop_
 _symmetry_equiv_pos_site_id
 _symmetry_equiv_pos_as_xyz
  1  'x, y, z'
loop_
 _atom_site_type_symbol
 _atom_site_label
 _atom_site_symmetry_multiplicity
 _atom_site_fract_x
 _atom_site_fract_y
 _atom_site_fract_z
 _atom_site_occupancy
  Ni  Ni0  1  0.00115330  1.00064176  1.00044641  1
  Ni  Ni1  1  0.16655256  0.16660127  0.16621190  1
  Ni  Ni2  1  0.99897462  0.00085593  0.33395353  1
  Ni  Ni3  1  0.99912700  0.33233234  0.00074017  1
  Cr  Cr4  1  0.16752177  0.50033831  0.16783328  1
  Ni  Ni5  1  0.99975191  0.33334286  0.33475476  1
  Ni  Ni6  1  0.99888497  0.66901699  1.00026408  1
  Ni  Ni7  1  0.16697375  0.83488436  0.16626615  1
  Ni  Ni8  1  0.99950998  0.66779172  0.33502601  1
  Ni  Ni9  1  0.33293983  0.00169013  0.00111702  1
  Ni  Ni10  1  0.50155227  0.16782686  0.16667714  1
  Cr  Cr11  1  0.33377013  1.00064967  0.33377657  1
  Ni  Ni12  1  0.33582456  0.33214452  0.00068697  1
  Ni  Ni13  1  0.50190908  0.50091814  0.16706923  1
  Ni  Ni14  1  0.33468044  0.33500497  0.33467922  1
  Ni  Ni15  1  0.33501815  0.66815624  0.00149048  1
  Ni  Ni16  1  0.50154659  0.83324586  0.16658194  1
  Ni  Ni17  1  0.33499774  0.66620627  0.33499373  1
  Ni  Ni18  1  0.66789705  0.00144879  0.00172609  1
  Ni  Ni19  1  0.83388591  0.16696750  0.16743522  1
  Ni  Ni20  1  0.66914363  1.00053738  0.33387575  1
  Ni  Ni21  1  0.66703725  0.33441140  1.00003841  1
  Ni  Ni22  1  0.83224276  0.50049562  0.16725440  1
  Ni  Ni23  1  0.66755919  0.33446792  0.33410336  1
  Ni  Ni24  1  0.66808577  0.66613020  0.00154365  1
  Ni  Ni25  1  0.83346954  0.83452714  0.16749163  1
  Ni  Ni26  1  0.66748192  0.66698531  0.33371416  1
  Ni  Ni27  1  0.16594340  0.16853072  0.50149798  1
  Ni  Ni28  1  0.00069766  0.00084604  0.66759067  1
  Ni  Ni29  1  0.16717482  0.16596394  0.83428021  1
  Ni  Ni30  1  0.16805673  0.50029747  0.50045732  1
  Ni  Ni31  1  1.00055362  0.33316220  0.66649802  1
  Cr  Cr32  1  0.16752361  0.50074532  0.83407680  1
  Ni  Ni33  1  0.16719829  0.83316200  0.50171350  1
  Ni  Ni34  1  0.99947194  0.66798373  0.66670208  1
  Ni  Ni35  1  0.16583297  0.83569533  0.83400904  1
  Fe  Fe36  1  0.50126814  0.16785435  0.50130905  1
  Ni  Ni37  1  0.33329331  0.00180887  0.66699429  1
  Ni  Ni38  1  0.50064098  0.16886204  0.83370825  1
  Ni  Ni39  1  0.49985704  0.50163396  0.50056326  1
  Ni  Ni40  1  0.33430215  0.33305683  0.66662447  1
  Ni  Ni41  1  0.50203929  0.49907575  0.83435637  1
  Ni  Ni42  1  0.50134328  0.83245206  0.50131072  1
  Ni  Ni43  1  0.33441395  0.66712587  0.66550997  1
  Cr  Cr44  1  0.50059787  0.83392262  0.83424148  1
  Ni  Ni45  1  0.83478687  0.16704336  0.50037996  1
  Ni  Ni46  1  0.66799924  0.00073152  0.66638681  1
  Ni  Ni47  1  0.83417645  0.16727710  0.83417477  1
  Ni  Ni48  1  0.83407645  0.50038019  0.50061709  1
  Fe  Fe49  1  0.66756214  0.33433778  0.66772205  1
  Ni  Ni50  1  0.83253562  0.50041817  0.83411729  1
  Ni  Ni51  1  0.83344938  0.83456593  0.50064053  1
  Ni  Ni52  1  0.66810361  0.66697777  0.66673386  1
  Ni  Ni53  1  0.83543463  0.83429473  0.83385799  1
" 