8758,Ni90Fe2Cr7_13,-236.620210818846, 169.772801522879,Ni90Fe2Cr7,"# generated using pymatgen
 data_Cr5FeNi48
_symmetry_space_group_name_H-M   'P 1'
_cell_length_a   7.46336277
_cell_length_b   7.46336277
_cell_length_c   10.55478885
_cell_angle_alpha   90.00000000
_cell_angle_beta   90.00000000
_cell_angle_gamma   90.00000000
_symmetry_Int_Tables_number   1
_chemical_formula_structural   Cr5FeNi48
_chemical_formula_sum   'Cr5 Fe1 Ni48'
_cell_volume   587.92056751
_cell_formula_units_Z   1
loop_
 _symmetry_equiv_pos_site_id
 _symmetry_equiv_pos_as_xyz
  1  'x, y, z'
loop_
 _atom_site_type_symbol
 _atom_site_label
 _atom_site_symmetry_multiplicity
 _atom_site_fract_x
 _atom_site_fract_y
 _atom_site_fract_z
 _atom_site_occupancy
  Ni  Ni0  1  0.00042163  0.00034018  0.99998694  1
  Ni  Ni1  1  0.16667648  0.16651951  0.16743017  1
  Ni  Ni2  1  0.00140380  0.99916332  0.33328148  1
  Ni  Ni3  1  0.00190148  0.33346893  1.00016506  1
  Ni  Ni4  1  0.16686480  0.50081237  0.16616788  1
  Ni  Ni5  1  0.00032490  0.33369342  0.33152783  1
  Ni  Ni6  1  1.00004915  0.66693720  0.99977625  1
  Ni  Ni7  1  0.16670149  0.83341164  0.16700706  1
  Ni  Ni8  1  0.99917817  0.66783956  0.33319387  1
  Ni  Ni9  1  0.33341112  0.00029488  0.99979548  1
  Ni  Ni10  1  0.49952360  0.16573361  0.16760299  1
  Ni  Ni11  1  0.33264499  0.99925049  0.33337886  1
  Ni  Ni12  1  0.33106843  0.33238315  0.00127233  1
  Ni  Ni13  1  0.49917938  0.50136447  0.16834447  1
  Ni  Ni14  1  0.33347682  0.33345911  0.33161178  1
  Ni  Ni15  1  0.33266405  0.66811592  0.00099228  1
  Ni  Ni16  1  0.50008470  0.83360176  0.16653976  1
  Ni  Ni17  1  0.33456810  0.66802808  0.33318023  1
  Ni  Ni18  1  0.66689273  0.99847403  1.00015047  1
  Ni  Ni19  1  0.83446779  0.16563506  0.16783807  1
  Ni  Ni20  1  0.66675460  0.99811734  0.33141428  1
  Cr  Cr21  1  0.66813734  0.33257128  0.00086203  1
  Ni  Ni22  1  0.83473098  0.50138013  0.16800142  1
  Ni  Ni23  1  0.66698417  0.33562507  0.33273848  1
  Ni  Ni24  1  0.66799273  0.66932281  0.00129483  1
  Ni  Ni25  1  0.83393989  0.83378920  0.16683198  1
  Ni  Ni26  1  0.66698509  0.66710733  0.33379555  1
  Ni  Ni27  1  0.16688305  0.16533069  0.50006392  1
  Ni  Ni28  1  0.00092707  0.99963545  0.66736801  1
  Ni  Ni29  1  0.16672321  0.16663623  0.83327180  1
  Cr  Cr30  1  0.16682270  0.50036374  0.49994728  1
  Ni  Ni31  1  0.00110769  0.33355786  0.66888711  1
  Ni  Ni32  1  0.16533937  0.50064668  0.83425412  1
  Ni  Ni33  1  0.16669167  0.83481088  0.50048052  1
  Ni  Ni34  1  0.99898309  0.66756675  0.66771279  1
  Ni  Ni35  1  0.16672579  0.83340052  0.83323868  1
  Cr  Cr36  1  0.49893002  0.16665119  0.50033285  1
  Ni  Ni37  1  0.33293999  0.99959272  0.66757187  1
  Ni  Ni38  1  0.49930747  0.16433608  0.83284434  1
  Ni  Ni39  1  0.50135792  0.50213155  0.50006828  1
  Ni  Ni40  1  0.33157198  0.33263909  0.66790060  1
  Cr  Cr41  1  0.49831970  0.50240838  0.83285320  1
  Ni  Ni42  1  0.50033995  0.83226802  0.50036336  1
  Ni  Ni43  1  0.33389529  0.66856410  0.66664465  1
  Ni  Ni44  1  0.50022961  0.83521634  0.83384726  1
  Cr  Cr45  1  0.83570589  0.16606728  0.49956829  1
  Ni  Ni46  1  0.66694924  0.99706814  0.66910969  1
  Ni  Ni47  1  0.83472102  0.16540523  0.83282338  1
  Ni  Ni48  1  0.83244021  0.50199730  0.50047293  1
  Fe  Fe49  1  0.66783843  0.33421281  0.66749935  1
  Ni  Ni50  1  0.83611888  0.50151240  0.83236946  1
  Ni  Ni51  1  0.83369336  0.83235320  0.50003261  1
  Ni  Ni52  1  0.66790441  0.66872720  0.66575814  1
  Ni  Ni53  1  0.83383515  0.83379089  0.83386421  1
" 