7337,Ni90Fe4Cr4_17,-237.834506500079, 176.95350195005,Ni90Fe4Cr4,"# generated using pymatgen
 data_Cr2FeNi24
_symmetry_space_group_name_H-M   'P 1'
_cell_length_a   7.45628439
_cell_length_b   7.45628439
_cell_length_c   10.54477851
_cell_angle_alpha   90.00000000
_cell_angle_beta   90.00000000
_cell_angle_gamma   90.00000000
_symmetry_Int_Tables_number   1
_chemical_formula_structural   Cr2FeNi24
_chemical_formula_sum   'Cr4 Fe2 Ni48'
_cell_volume   586.24937138
_cell_formula_units_Z   2
loop_
 _symmetry_equiv_pos_site_id
 _symmetry_equiv_pos_as_xyz
  1  'x, y, z'
loop_
 _atom_site_type_symbol
 _atom_site_label
 _atom_site_symmetry_multiplicity
 _atom_site_fract_x
 _atom_site_fract_y
 _atom_site_fract_z
 _atom_site_occupancy
  Ni  Ni0  1  0.00085766  0.00080681  0.00083422  1
  Ni  Ni1  1  0.16769968  0.16776612  0.16803742  1
  Ni  Ni2  1  0.00090766  1.00003060  0.33424002  1
  Ni  Ni3  1  1.00067036  0.33399697  0.00149007  1
  Ni  Ni4  1  0.16688824  0.49978465  0.16612664  1
  Fe  Fe5  1  0.00127909  0.33285356  0.33317818  1
  Ni  Ni6  1  0.00263693  0.66736105  0.00098758  1
  Ni  Ni7  1  0.16681225  0.83461348  0.16633094  1
  Ni  Ni8  1  0.99806733  0.66897317  0.33299918  1
  Ni  Ni9  1  0.33364994  0.00078554  0.00134020  1
  Ni  Ni10  1  0.49985545  0.16660417  0.16616132  1
  Ni  Ni11  1  0.33329884  0.00271967  0.33423968  1
  Ni  Ni12  1  0.33408283  0.33426278  0.00128203  1
  Ni  Ni13  1  0.49967388  0.49995298  0.16681254  1
  Ni  Ni14  1  0.33382812  0.33155205  0.33318573  1
  Ni  Ni15  1  0.33213926  0.66711710  0.00088927  1
  Ni  Ni16  1  0.50090977  0.83560851  0.16771364  1
  Cr  Cr17  1  0.33486120  0.66791988  0.33301778  1
  Ni  Ni18  1  0.66765677  0.00275291  0.00133929  1
  Ni  Ni19  1  0.83461133  0.16652785  0.16631864  1
  Ni  Ni20  1  0.66796044  0.99933519  0.33381351  1
  Ni  Ni21  1  0.66741196  0.33248431  1.00072140  1
  Ni  Ni22  1  0.83560590  0.50083930  0.16755422  1
  Cr  Cr23  1  0.66668865  0.33450016  0.33405451  1
  Cr  Cr24  1  0.66754889  0.66702215  0.00151294  1
  Ni  Ni25  1  0.83444327  0.83479545  0.16849148  1
  Ni  Ni26  1  0.66957270  0.66843802  0.33442843  1
  Ni  Ni27  1  0.16770025  0.16579455  0.50031467  1
  Ni  Ni28  1  0.00090735  1.00062226  0.66709037  1
  Ni  Ni29  1  0.16674192  0.16763338  0.83381371  1
  Cr  Cr30  1  0.16688678  0.49969741  0.50166689  1
  Ni  Ni31  1  0.99967028  0.33336628  0.66748690  1
  Ni  Ni32  1  0.16782761  0.50050913  0.83442867  1
  Ni  Ni33  1  0.16681167  0.83681813  0.50177978  1
  Ni  Ni34  1  0.99985143  0.66817698  0.66817703  1
  Ni  Ni35  1  0.16783410  0.83402317  0.83405423  1
  Ni  Ni36  1  0.49980668  0.16641929  0.50176416  1
  Ni  Ni37  1  0.33359971  1.00059960  0.66658491  1
  Fe  Fe38  1  0.50077727  0.16737741  0.83411629  1
  Ni  Ni39  1  0.50245793  0.50076734  0.50234955  1
  Ni  Ni40  1  0.33508292  0.33363087  0.66769589  1
  Ni  Ni41  1  0.49967091  0.50055393  0.83300285  1
  Ni  Ni42  1  0.50191045  0.83497888  0.50126380  1
  Ni  Ni43  1  0.33492114  0.66793380  0.66827592  1
  Ni  Ni44  1  0.49985866  0.83417177  0.83318878  1
  Ni  Ni45  1  0.83465976  0.16634213  0.50160757  1
  Ni  Ni46  1  0.66765751  0.00078490  0.66701088  1
  Ni  Ni47  1  0.83451707  0.16744562  0.83424017  1
  Ni  Ni48  1  0.83281578  0.50165617  0.50161089  1
  Ni  Ni49  1  0.66741394  0.33468561  0.66738717  1
  Ni  Ni50  1  0.83466737  0.49946333  0.83300230  1
  Ni  Ni51  1  0.83344308  0.83416646  0.50048545  1
  Ni  Ni52  1  0.66739165  0.66669512  0.66628686  1
  Ni  Ni53  1  0.83447318  0.83525679  0.83318823  1
" 