3448,Ni90Fe4Cr4_6,-237.705528904493, 176.303023661919,Ni90Fe4Cr4,"# generated using pymatgen
 data_Cr2FeNi24
_symmetry_space_group_name_H-M   'P 1'
_cell_length_a   7.45682786
_cell_length_b   7.45682786
_cell_length_c   10.54554709
_cell_angle_alpha   90.00000000
_cell_angle_beta   90.00000000
_cell_angle_gamma   90.00000000
_symmetry_Int_Tables_number   1
_chemical_formula_structural   Cr2FeNi24
_chemical_formula_sum   'Cr4 Fe2 Ni48'
_cell_volume   586.37757123
_cell_formula_units_Z   2
loop_
 _symmetry_equiv_pos_site_id
 _symmetry_equiv_pos_as_xyz
  1  'x, y, z'
loop_
 _atom_site_type_symbol
 _atom_site_label
 _atom_site_symmetry_multiplicity
 _atom_site_fract_x
 _atom_site_fract_y
 _atom_site_fract_z
 _atom_site_occupancy
  Ni  Ni0  1  0.99980325  0.99991995  1.00006078  1
  Cr  Cr1  1  0.16700140  0.16760428  0.16665355  1
  Ni  Ni2  1  0.00188805  1.00022150  0.33511610  1
  Ni  Ni3  1  0.99954017  0.33519692  0.99979010  1
  Ni  Ni4  1  0.16695688  0.50195348  0.16742132  1
  Ni  Ni5  1  0.99908916  0.33528030  0.33467780  1
  Ni  Ni6  1  0.00107923  0.66696849  0.00111429  1
  Ni  Ni7  1  0.16710462  0.83300014  0.16788764  1
  Ni  Ni8  1  0.00126122  0.66666156  0.33392790  1
  Ni  Ni9  1  0.33497385  0.99961883  1.00017814  1
  Ni  Ni10  1  0.50125002  0.16820889  0.16664441  1
  Ni  Ni11  1  0.33274918  1.00002147  0.33377251  1
  Ni  Ni12  1  0.33498391  0.33524945  1.00019255  1
  Ni  Ni13  1  0.50110563  0.50074705  0.16791956  1
  Fe  Fe14  1  0.33425020  0.33530722  0.33458550  1
  Ni  Ni15  1  0.33378416  0.66726143  1.00057934  1
  Ni  Ni16  1  0.50015604  0.83315375  0.16652423  1
  Ni  Ni17  1  0.33290509  0.66701591  0.33347707  1
  Ni  Ni18  1  0.66726253  0.00110774  0.00074215  1
  Ni  Ni19  1  0.83368274  0.16828808  0.16706728  1
  Cr  Cr20  1  0.66791211  0.00186451  0.33314884  1
  Ni  Ni21  1  0.66755468  0.33395268  0.00104621  1
  Ni  Ni22  1  0.83397100  0.50075680  0.16736833  1
  Ni  Ni23  1  0.66790230  0.33564368  0.33394012  1
  Ni  Ni24  1  0.66719303  0.66698303  0.00113487  1
  Ni  Ni25  1  0.83480843  0.83299501  0.16690375  1
  Ni  Ni26  1  0.66792859  0.66451764  0.33319704  1
  Ni  Ni27  1  0.16694010  0.16830086  0.49994360  1
  Ni  Ni28  1  0.99940536  0.00079997  0.66670262  1
  Ni  Ni29  1  0.16646754  0.16842150  0.83477304  1
  Ni  Ni30  1  0.16671694  0.50010275  0.50071732  1
  Ni  Ni31  1  1.00064920  0.33442683  0.66751355  1
  Ni  Ni32  1  0.16716901  0.50016819  0.83381324  1
  Ni  Ni33  1  0.16454632  0.83369608  0.49961012  1
  Ni  Ni34  1  0.00102771  0.66694290  0.66703382  1
  Ni  Ni35  1  0.16602827  0.83338581  0.83464992  1
  Ni  Ni36  1  0.49985913  0.17041486  0.50046825  1
  Cr  Cr37  1  0.33303241  0.00115297  0.66874075  1
  Ni  Ni38  1  0.50142431  0.16844251  0.83491996  1
  Ni  Ni39  1  0.50131600  0.49870472  0.50068084  1
  Ni  Ni40  1  0.33400928  0.33559866  0.66672924  1
  Ni  Ni41  1  0.50098590  0.50051341  0.83335237  1
  Cr  Cr42  1  0.50169638  0.83176150  0.50145013  1
  Ni  Ni43  1  0.33278680  0.66481987  0.66809767  1
  Ni  Ni44  1  0.50212799  0.83307767  0.83478489  1
  Fe  Fe45  1  0.83508168  0.16876204  0.50139866  1
  Ni  Ni46  1  0.66946824  0.00197370  0.66812158  1
  Ni  Ni47  1  0.83422021  0.16734292  0.83351187  1
  Ni  Ni48  1  0.83399290  0.50147961  0.50059500  1
  Ni  Ni49  1  0.66746228  0.33416806  0.66711209  1
  Ni  Ni50  1  0.83390369  0.50086704  0.83414136  1
  Ni  Ni51  1  0.83640181  0.83233345  0.50149114  1
  Ni  Ni52  1  0.66830303  0.66599674  0.66789887  1
  Ni  Ni53  1  0.83388411  0.83384971  0.83368083  1
" 