7784,Ni90Fe3Cr5_1,-237.848384844888, 176.907819352856,Ni90Fe3Cr5,"# generated using pymatgen
 data_Cr2FeNi24
_symmetry_space_group_name_H-M   'P 1'
_cell_length_a   7.45591283
_cell_length_b   7.45591283
_cell_length_c   10.54425305
_cell_angle_alpha   90.00000000
_cell_angle_beta   90.00000000
_cell_angle_gamma   90.00000000
_symmetry_Int_Tables_number   1
_chemical_formula_structural   Cr2FeNi24
_chemical_formula_sum   'Cr4 Fe2 Ni48'
_cell_volume   586.16173512
_cell_formula_units_Z   2
loop_
 _symmetry_equiv_pos_site_id
 _symmetry_equiv_pos_as_xyz
  1  'x, y, z'
loop_
 _atom_site_type_symbol
 _atom_site_label
 _atom_site_symmetry_multiplicity
 _atom_site_fract_x
 _atom_site_fract_y
 _atom_site_fract_z
 _atom_site_occupancy
  Ni  Ni0  1  0.99979923  0.00141061  0.00169773  1
  Ni  Ni1  1  0.16746726  0.16748954  0.16688264  1
  Ni  Ni2  1  0.00177021  0.00088316  0.33432306  1
  Ni  Ni3  1  1.00061379  0.33425703  1.00063798  1
  Ni  Ni4  1  0.16765380  0.50125447  0.16706605  1
  Ni  Ni5  1  0.99962013  0.33267937  0.33326178  1
  Ni  Ni6  1  0.99944404  0.66657326  0.00181192  1
  Ni  Ni7  1  0.16746745  0.83349665  0.16797531  1
  Ni  Ni8  1  0.00122440  0.66867906  0.33326118  1
  Ni  Ni9  1  0.33526896  0.00141137  0.00145511  1
  Ni  Ni10  1  0.50080465  0.16775484  0.16733640  1
  Ni  Ni11  1  0.33305922  0.00088315  0.33432308  1
  Ni  Ni12  1  0.33339300  0.33319507  0.00169833  1
  Ni  Ni13  1  0.49938987  0.49976229  0.16666973  1
  Ni  Ni14  1  0.33520702  0.33267727  0.33326190  1
  Ni  Ni15  1  0.33456231  0.66763426  0.00287443  1
  Ni  Ni16  1  0.49930919  0.83472425  0.16584177  1
  Ni  Ni17  1  0.33360282  0.66868113  0.33326132  1
  Ni  Ni18  1  0.66717187  1.00024297  0.00097885  1
  Ni  Ni19  1  0.83396798  0.16756854  0.16752362  1
  Fe  Fe20  1  0.66741081  0.00250616  0.33407759  1
  Ni  Ni21  1  0.66823267  0.33355180  0.00180880  1
  Ni  Ni22  1  0.83519645  0.49976218  0.16629278  1
  Ni  Ni23  1  0.66741278  0.33322045  0.33432313  1
  Ni  Ni24  1  0.66823436  0.66844718  0.00115852  1
  Ni  Ni25  1  0.83546331  0.83491079  0.16602945  1
  Cr  Cr26  1  0.66741577  0.66653818  0.33429134  1
  Ni  Ni27  1  0.16746739  0.16550484  0.50152123  1
  Ni  Ni28  1  1.00003903  0.00141125  0.66622061  1
  Fe  Fe29  1  0.16710033  0.16892107  0.83402259  1
  Cr  Cr30  1  0.16762121  0.50137713  0.50074523  1
  Ni  Ni31  1  0.99979452  0.33343580  0.66834037  1
  Ni  Ni32  1  0.16566741  0.49964244  0.83421352  1
  Ni  Ni33  1  0.16746758  0.83548216  0.50042857  1
  Ni  Ni34  1  0.99862299  0.66739290  0.66716570  1
  Cr  Cr35  1  0.16744958  0.83316169  0.83386808  1
  Ni  Ni36  1  0.50099225  0.16756752  0.50087995  1
  Ni  Ni37  1  0.33502921  0.00141202  0.66646323  1
  Ni  Ni38  1  0.50147523  0.16585320  0.83402346  1
  Ni  Ni39  1  0.50137565  0.49976215  0.50173455  1
  Ni  Ni40  1  0.33421207  0.33237360  0.66728008  1
  Cr  Cr41  1  0.50023412  0.50051543  0.83386803  1
  Ni  Ni42  1  0.49949671  0.83491118  0.50237469  1
  Ni  Ni43  1  0.33538334  0.66845424  0.66610335  1
  Ni  Ni44  1  0.50199712  0.83622367  0.83402337  1
  Ni  Ni45  1  0.83378023  0.16738095  0.50069258  1
  Ni  Ni46  1  0.66717180  1.00024274  0.66718075  1
  Ni  Ni47  1  0.83348336  0.16746404  0.83402360  1
  Ni  Ni48  1  0.83320996  0.49976202  0.50211149  1
  Ni  Ni49  1  0.66823263  0.33379095  0.66610828  1
  Ni  Ni50  1  0.83638004  0.50016855  0.83383624  1
  Ni  Ni51  1  0.83527564  0.83509800  0.50218686  1
  Ni  Ni52  1  0.66823433  0.66820827  0.66675848  1
  Ni  Ni53  1  0.83296510  0.83460938  0.83402357  1
" 