4982,Ni90Fe3Cr5_18,-237.832401894552, 176.937645332089,Ni90Fe3Cr5,"# generated using pymatgen
 data_Cr2FeNi24
_symmetry_space_group_name_H-M   'P 1'
_cell_length_a   7.45773418
_cell_length_b   7.45773418
_cell_length_c   10.54682882
_cell_angle_alpha   90.00000000
_cell_angle_beta   90.00000000
_cell_angle_gamma   90.00000000
_symmetry_Int_Tables_number   1
_chemical_formula_structural   Cr2FeNi24
_chemical_formula_sum   'Cr4 Fe2 Ni48'
_cell_volume   586.59140551
_cell_formula_units_Z   2
loop_
 _symmetry_equiv_pos_site_id
 _symmetry_equiv_pos_as_xyz
  1  'x, y, z'
loop_
 _atom_site_type_symbol
 _atom_site_label
 _atom_site_symmetry_multiplicity
 _atom_site_fract_x
 _atom_site_fract_y
 _atom_site_fract_z
 _atom_site_occupancy
  Ni  Ni0  1  0.99901233  0.00063396  0.00103101  1
  Fe  Fe1  1  0.16588709  0.16694665  0.16728611  1
  Ni  Ni2  1  1.00054904  0.99918786  0.33352600  1
  Ni  Ni3  1  1.00022044  0.33434541  1.00037825  1
  Ni  Ni4  1  0.16826869  0.50263986  0.16598841  1
  Cr  Cr5  1  1.00013801  0.33456684  0.33421832  1
  Ni  Ni6  1  1.00030921  0.66690949  1.00051531  1
  Ni  Ni7  1  0.16557225  0.83166144  0.16869821  1
  Ni  Ni8  1  1.00055769  0.66872908  0.33405872  1
  Cr  Cr9  1  0.33359863  0.99872100  0.99884822  1
  Cr  Cr10  1  0.50281842  0.16865737  0.16846131  1
  Ni  Ni11  1  0.33335270  0.99926502  0.33543173  1
  Ni  Ni12  1  0.33188813  0.33548018  0.00080368  1
  Ni  Ni13  1  0.49991226  0.50163983  0.16746578  1
  Ni  Ni14  1  0.33447926  0.33506137  0.33464471  1
  Ni  Ni15  1  0.33315223  0.66690112  0.00163809  1
  Ni  Ni16  1  0.50134842  0.83153069  0.16824364  1
  Ni  Ni17  1  0.33416993  0.66748564  0.33357182  1
  Ni  Ni18  1  0.66954235  0.99938817  0.99942194  1
  Ni  Ni19  1  0.83407729  0.16600819  0.16624799  1
  Ni  Ni20  1  0.66790000  0.99945012  0.33466647  1
  Ni  Ni21  1  0.66959248  0.33429872  0.00075774  1
  Ni  Ni22  1  0.83358687  0.50129202  0.16689949  1
  Ni  Ni23  1  0.66670545  0.33507830  0.33494329  1
  Ni  Ni24  1  0.66840991  0.66819423  0.00194061  1
  Ni  Ni25  1  0.83489685  0.83458352  0.16727748  1
  Ni  Ni26  1  0.66710317  0.66740918  0.33350315  1
  Ni  Ni27  1  0.16762669  0.16668120  0.50064617  1
  Ni  Ni28  1  0.00080630  0.00093815  0.66732287  1
  Ni  Ni29  1  0.16582837  0.16840305  0.83360299  1
  Ni  Ni30  1  0.16928421  0.50190761  0.50185351  1
  Ni  Ni31  1  0.00069221  0.33383957  0.66769702  1
  Ni  Ni32  1  0.16568869  0.50088784  0.83413581  1
  Ni  Ni33  1  0.16636111  0.83331640  0.50049452  1
  Ni  Ni34  1  1.00047259  0.66713480  0.66727881  1
  Ni  Ni35  1  0.16549882  0.83263515  0.83269114  1
  Ni  Ni36  1  0.50123688  0.16793652  0.50089830  1
  Ni  Ni37  1  0.33404254  1.00059498  0.66704160  1
  Ni  Ni38  1  0.50199050  0.16717024  0.83245492  1
  Ni  Ni39  1  0.49943455  0.50024307  0.49966239  1
  Ni  Ni40  1  0.33275195  0.33275815  0.66644694  1
  Cr  Cr41  1  0.49998455  0.50031836  0.83490244  1
  Ni  Ni42  1  0.50091851  0.83368073  0.50037779  1
  Ni  Ni43  1  0.33332942  0.66856312  0.66670653  1
  Ni  Ni44  1  0.50176174  0.83448983  0.83315410  1
  Ni  Ni45  1  0.83292849  0.16515093  0.50137031  1
  Ni  Ni46  1  0.66702015  1.00037458  0.66779196  1
  Ni  Ni47  1  0.83400775  0.16694821  0.83433319  1
  Fe  Fe48  1  0.83321446  0.50192684  0.50162434  1
  Ni  Ni49  1  0.66846475  0.33314989  0.66614943  1
  Ni  Ni50  1  0.83593632  0.50053450  0.83354290  1
  Ni  Ni51  1  0.83459786  0.83521909  0.50015856  1
  Ni  Ni52  1  0.66808595  0.66843508  0.66642800  1
  Ni  Ni53  1  0.83470392  0.83441523  0.83448436  1
" 