7345,Ni90Fe3Cr5_19,-237.743874788428, 176.267409356491,Ni90Fe3Cr5,"# generated using pymatgen
 data_Cr2FeNi24
_symmetry_space_group_name_H-M   'P 1'
_cell_length_a   7.46052442
_cell_length_b   7.46052442
_cell_length_c   10.55077482
_cell_angle_alpha   90.00000000
_cell_angle_beta   90.00000000
_cell_angle_gamma   90.00000000
_symmetry_Int_Tables_number   1
_chemical_formula_structural   Cr2FeNi24
_chemical_formula_sum   'Cr4 Fe2 Ni48'
_cell_volume   587.25005549
_cell_formula_units_Z   2
loop_
 _symmetry_equiv_pos_site_id
 _symmetry_equiv_pos_as_xyz
  1  'x, y, z'
loop_
 _atom_site_type_symbol
 _atom_site_label
 _atom_site_symmetry_multiplicity
 _atom_site_fract_x
 _atom_site_fract_y
 _atom_site_fract_z
 _atom_site_occupancy
  Ni  Ni0  1  1.00042218  1.00031194  1.00030694  1
  Fe  Fe1  1  0.16636618  0.16718802  0.16693796  1
  Ni  Ni2  1  0.00057666  0.00228500  0.33430454  1
  Ni  Ni3  1  1.00042243  0.33394343  0.00072829  1
  Ni  Ni4  1  0.16855688  0.49982387  0.16643342  1
  Ni  Ni5  1  0.00056882  0.33190983  0.33363194  1
  Ni  Ni6  1  1.00029430  0.66706411  1.00035115  1
  Ni  Ni7  1  0.16864346  0.83435590  0.16665964  1
  Cr  Cr8  1  0.00150922  0.66717305  0.33438570  1
  Ni  Ni9  1  0.33380640  1.00025433  1.00024661  1
  Fe  Fe10  1  0.50108029  0.16727278  0.16699616  1
  Ni  Ni11  1  0.33288084  0.00155469  0.33294205  1
  Ni  Ni12  1  0.33369700  0.33392648  0.99998580  1
  Ni  Ni13  1  0.49890591  0.49990191  0.16663043  1
  Ni  Ni14  1  0.33380077  0.33359942  0.33433265  1
  Ni  Ni15  1  0.33382578  0.66715198  0.00080451  1
  Ni  Ni16  1  0.49889484  0.83442509  0.16619114  1
  Ni  Ni17  1  0.33284050  0.66622840  0.33297322  1
  Ni  Ni18  1  0.66708068  1.00020215  0.00054996  1
  Ni  Ni19  1  0.83380108  0.16715404  0.16753988  1
  Ni  Ni20  1  0.66783161  0.00326041  0.33293176  1
  Ni  Ni21  1  0.66718330  0.33397722  1.00030506  1
  Ni  Ni22  1  0.83379352  0.49734336  0.16523445  1
  Ni  Ni23  1  0.66693470  0.33190636  0.33429752  1
  Ni  Ni24  1  0.66719037  0.66715152  0.00058520  1
  Ni  Ni25  1  0.83375907  0.83685592  0.16541444  1
  Cr  Cr26  1  0.66660820  0.66643733  0.33261514  1
  Ni  Ni27  1  0.16770875  0.16626894  0.49878549  1
  Ni  Ni28  1  0.00059881  0.99839635  0.66663967  1
  Ni  Ni29  1  0.16792720  0.16613855  0.83528936  1
  Ni  Ni30  1  0.16916315  0.50021161  0.49999208  1
  Cr  Cr31  1  0.00093806  0.33342764  0.66724723  1
  Ni  Ni32  1  0.16830637  0.50125123  0.83495645  1
  Ni  Ni33  1  0.16639341  0.83481666  0.50111127  1
  Ni  Ni34  1  1.00025173  0.66896866  0.66683507  1
  Ni  Ni35  1  0.16733577  0.83391073  0.83355051  1
  Ni  Ni36  1  0.50063825  0.16902375  0.49990473  1
  Ni  Ni37  1  0.33294112  0.00155442  0.66803102  1
  Ni  Ni38  1  0.50055426  0.16713452  0.83389277  1
  Ni  Ni39  1  0.49917872  0.49747479  0.50111105  1
  Ni  Ni40  1  0.33573847  0.33347435  0.66688305  1
  Ni  Ni41  1  0.50016803  0.50027031  0.83356022  1
  Cr  Cr42  1  0.49924917  0.83455315  0.50130446  1
  Ni  Ni43  1  0.33290156  0.66624500  0.66759714  1
  Ni  Ni44  1  0.50017627  0.83389888  0.83422478  1
  Ni  Ni45  1  0.83298144  0.16628338  0.49920375  1
  Ni  Ni46  1  0.66780232  0.00123805  0.66782707  1
  Ni  Ni47  1  0.83283311  0.16615687  0.83462709  1
  Ni  Ni48  1  0.83295984  0.49867724  0.50087845  1
  Ni  Ni49  1  0.66507955  0.33381864  0.66665287  1
  Ni  Ni50  1  0.83284254  0.50083327  0.83526303  1
  Ni  Ni51  1  0.83569658  0.83636869  0.50201177  1
  Ni  Ni52  1  0.66816270  0.66624547  0.66802751  1
  Ni  Ni53  1  0.83380556  0.83430805  0.83388430  1
" 