3788,Ni90Fe3Cr5_12,-237.72598614751, 175.098592408744,Ni90Fe3Cr5,"# generated using pymatgen
 data_Cr2FeNi24
_symmetry_space_group_name_H-M   'P 1'
_cell_length_a   7.45841939
_cell_length_b   7.45841939
_cell_length_c   10.54779786
_cell_angle_alpha   90.00000000
_cell_angle_beta   90.00000000
_cell_angle_gamma   90.00000000
_symmetry_Int_Tables_number   1
_chemical_formula_structural   Cr2FeNi24
_chemical_formula_sum   'Cr4 Fe2 Ni48'
_cell_volume   586.75310871
_cell_formula_units_Z   2
loop_
 _symmetry_equiv_pos_site_id
 _symmetry_equiv_pos_as_xyz
  1  'x, y, z'
loop_
 _atom_site_type_symbol
 _atom_site_label
 _atom_site_symmetry_multiplicity
 _atom_site_fract_x
 _atom_site_fract_y
 _atom_site_fract_z
 _atom_site_occupancy
  Ni  Ni0  1  0.00363713  0.99946151  0.00125037  1
  Ni  Ni1  1  0.16738436  0.16684850  0.16695334  1
  Ni  Ni2  1  0.00156684  0.00084880  0.33408497  1
  Ni  Ni3  1  0.00214358  0.33311362  0.00339781  1
  Ni  Ni4  1  0.16776877  0.50111593  0.16752927  1
  Ni  Ni5  1  1.00029929  0.33432392  0.33438661  1
  Ni  Ni6  1  0.00107154  0.66907869  0.00283534  1
  Ni  Ni7  1  0.16802780  0.83380725  0.16712059  1
  Ni  Ni8  1  0.00115643  0.66655571  0.33396820  1
  Ni  Ni9  1  0.33237749  0.00058639  1.00036651  1
  Ni  Ni10  1  0.49954351  0.16783769  0.16848010  1
  Ni  Ni11  1  0.33366494  1.00006891  0.33362837  1
  Ni  Ni12  1  0.33481486  0.33306616  0.00205713  1
  Ni  Ni13  1  0.50017416  0.50116472  0.16688799  1
  Fe  Fe14  1  0.33372063  0.33418735  0.33418713  1
  Ni  Ni15  1  0.33477705  0.66817208  1.00051282  1
  Ni  Ni16  1  0.49908195  0.83297105  0.16848381  1
  Ni  Ni17  1  0.33372814  0.66777784  0.33482132  1
  Cr  Cr18  1  0.66557030  0.99950876  0.00156299  1
  Ni  Ni19  1  0.83466834  0.16795200  0.16834151  1
  Ni  Ni20  1  0.66653190  0.00083307  0.33447516  1
  Ni  Ni21  1  0.66472457  0.33558756  0.00204384  1
  Ni  Ni22  1  0.83383952  0.50050200  0.16686884  1
  Ni  Ni23  1  0.66767704  0.33442602  0.33408599  1
  Ni  Ni24  1  0.66593679  0.66652400  0.00163616  1
  Ni  Ni25  1  0.83476462  0.83323515  0.16845878  1
  Ni  Ni26  1  0.66686363  0.66649643  0.33362488  1
  Ni  Ni27  1  0.16746601  0.16668053  0.50070526  1
  Ni  Ni28  1  0.00262485  0.99910387  0.66634018  1
  Ni  Ni29  1  0.16940310  0.16576502  0.83415576  1
  Ni  Ni30  1  0.16740412  0.50085498  0.50034535  1
  Ni  Ni31  1  0.00245318  0.33357126  0.66408608  1
  Cr  Cr32  1  0.16857090  0.50014227  0.83388090  1
  Ni  Ni33  1  0.16766117  0.83429197  0.50052671  1
  Ni  Ni34  1  1.00008816  0.66894386  0.66495993  1
  Ni  Ni35  1  0.16746839  0.83534558  0.83397790  1
  Ni  Ni36  1  0.50053243  0.16677140  0.50034872  1
  Ni  Ni37  1  0.33382082  0.00136187  0.66769286  1
  Ni  Ni38  1  0.49793697  0.16811973  0.83307405  1
  Ni  Ni39  1  0.50068235  0.50088322  0.50079778  1
  Ni  Ni40  1  0.33475018  0.33218075  0.66564262  1
  Ni  Ni41  1  0.50001850  0.50061085  0.83392238  1
  Ni  Ni42  1  0.50036864  0.83419748  0.50025993  1
  Fe  Fe43  1  0.33447175  0.66802507  0.66590944  1
  Ni  Ni44  1  0.49941011  0.83301644  0.83280694  1
  Ni  Ni45  1  0.83370013  0.16693839  0.50091169  1
  Ni  Ni46  1  0.66538512  0.99921500  0.66582652  1
  Cr  Cr47  1  0.83537583  0.16698900  0.83225289  1
  Ni  Ni48  1  0.83367418  0.50064514  0.50070283  1
  Ni  Ni49  1  0.66450056  0.33463629  0.66564960  1
  Cr  Cr50  1  0.83264100  0.50173006  0.83459994  1
  Ni  Ni51  1  0.83376334  0.83413513  0.50026589  1
  Ni  Ni52  1  0.66675212  0.66789869  0.66648394  1
  Ni  Ni53  1  0.83479563  0.83312978  0.83305883  1
" 