1447,Ni90Fe3Cr5_8,-237.806417746632, 176.643818491639,Ni90Fe3Cr5,"# generated using pymatgen
 data_Cr2FeNi24
_symmetry_space_group_name_H-M   'P 1'
_cell_length_a   7.45872716
_cell_length_b   7.45872716
_cell_length_c   10.54823311
_cell_angle_alpha   90.00000000
_cell_angle_beta   90.00000000
_cell_angle_gamma   90.00000000
_symmetry_Int_Tables_number   1
_chemical_formula_structural   Cr2FeNi24
_chemical_formula_sum   'Cr4 Fe2 Ni48'
_cell_volume   586.82574743
_cell_formula_units_Z   2
loop_
 _symmetry_equiv_pos_site_id
 _symmetry_equiv_pos_as_xyz
  1  'x, y, z'
loop_
 _atom_site_type_symbol
 _atom_site_label
 _atom_site_symmetry_multiplicity
 _atom_site_fract_x
 _atom_site_fract_y
 _atom_site_fract_z
 _atom_site_occupancy
  Cr  Cr0  1  0.00079191  0.99755285  1.00012563  1
  Ni  Ni1  1  0.16832483  0.16701281  0.16783110  1
  Ni  Ni2  1  0.00135518  0.99939443  0.33498691  1
  Ni  Ni3  1  1.00014769  0.33677098  0.00069986  1
  Ni  Ni4  1  0.16615056  0.50202403  0.16606752  1
  Ni  Ni5  1  0.99991734  0.33472418  0.33422785  1
  Ni  Ni6  1  0.99968028  0.66636644  1.00052173  1
  Ni  Ni7  1  0.16836180  0.83264812  0.16807584  1
  Ni  Ni8  1  1.00032295  0.66753993  0.33322750  1
  Ni  Ni9  1  0.33569135  0.99975268  0.00176682  1
  Ni  Ni10  1  0.50018901  0.16602379  0.16632539  1
  Ni  Ni11  1  0.33385490  0.99922182  0.33352842  1
  Ni  Ni12  1  0.33561996  0.33454777  0.00138426  1
  Ni  Ni13  1  0.50176297  0.50205514  0.16685079  1
  Cr  Cr14  1  0.33459558  0.33423387  0.33419266  1
  Ni  Ni15  1  0.33450014  0.66741044  1.00053012  1
  Ni  Ni16  1  0.50032949  0.83348947  0.16723855  1
  Ni  Ni17  1  0.33415727  0.66883602  0.33362229  1
  Fe  Fe18  1  0.66547648  0.99914278  0.99973910  1
  Cr  Cr19  1  0.83294661  0.16895184  0.16782660  1
  Ni  Ni20  1  0.66636556  0.99959837  0.33388771  1
  Ni  Ni21  1  0.66582941  0.33581583  0.99968426  1
  Ni  Ni22  1  0.83375789  0.50216688  0.16724137  1
  Ni  Ni23  1  0.66757595  0.33490207  0.33470523  1
  Ni  Ni24  1  0.66741739  0.66649768  0.00073185  1
  Ni  Ni25  1  0.83291211  0.83112903  0.16880459  1
  Ni  Ni26  1  0.66718433  0.66703469  0.33380400  1
  Ni  Ni27  1  0.16574153  0.16587200  0.50104356  1
  Ni  Ni28  1  0.99949496  0.99940428  0.66613652  1
  Cr  Cr29  1  0.16808125  0.16852784  0.83250919  1
  Ni  Ni30  1  0.16567109  0.50230831  0.50173760  1
  Ni  Ni31  1  0.99930130  0.33473976  0.66668538  1
  Ni  Ni32  1  0.16709080  0.50264630  0.83399792  1
  Ni  Ni33  1  0.16821833  0.83355852  0.50062998  1
  Ni  Ni34  1  1.00015798  0.66750027  0.66797924  1
  Ni  Ni35  1  0.16850880  0.83128843  0.83295201  1
  Ni  Ni36  1  0.50223429  0.16539103  0.50147374  1
  Ni  Ni37  1  0.33480829  0.99970366  0.66634855  1
  Ni  Ni38  1  0.50235663  0.16692544  0.83400526  1
  Ni  Ni39  1  0.50202493  0.50251851  0.50150280  1
  Ni  Ni40  1  0.33534733  0.33470036  0.66652359  1
  Ni  Ni41  1  0.50077403  0.50111925  0.83340120  1
  Ni  Ni42  1  0.49986271  0.83383309  0.50039183  1
  Ni  Ni43  1  0.33427098  0.66727355  0.66752260  1
  Ni  Ni44  1  0.50028209  0.83354232  0.83406821  1
  Ni  Ni45  1  0.83371499  0.16784530  0.50081561  1
  Ni  Ni46  1  0.66725755  1.00050880  0.66826895  1
  Ni  Ni47  1  0.83143771  0.16857116  0.83280489  1
  Ni  Ni48  1  0.83398441  0.49982572  0.50013424  1
  Ni  Ni49  1  0.66702134  0.33412884  0.66716890  1
  Ni  Ni50  1  0.83378507  0.50054310  0.83419993  1
  Fe  Fe51  1  0.83349252  0.83350968  0.50061378  1
  Ni  Ni52  1  0.66726333  0.66700755  0.66714229  1
  Ni  Ni53  1  0.83271618  0.83248239  0.83243366  1
" 