3446,Ni90Fe2Cr7_1,-236.610024919332, 169.705427944531,Ni90Fe2Cr7,"# generated using pymatgen
 data_Cr5FeNi48
_symmetry_space_group_name_H-M   'P 1'
_cell_length_a   7.46459799
_cell_length_b   7.46459799
_cell_length_c   10.55653571
_cell_angle_alpha   90.00000000
_cell_angle_beta   90.00000000
_cell_angle_gamma   90.00000000
_symmetry_Int_Tables_number   1
_chemical_formula_structural   Cr5FeNi48
_chemical_formula_sum   'Cr5 Fe1 Ni48'
_cell_volume   588.21252558
_cell_formula_units_Z   1
loop_
 _symmetry_equiv_pos_site_id
 _symmetry_equiv_pos_as_xyz
  1  'x, y, z'
loop_
 _atom_site_type_symbol
 _atom_site_label
 _atom_site_symmetry_multiplicity
 _atom_site_fract_x
 _atom_site_fract_y
 _atom_site_fract_z
 _atom_site_occupancy
  Fe  Fe0  1  0.99921251  0.99957581  0.00057022  1
  Ni  Ni1  1  0.16603121  0.16579690  0.16769655  1
  Ni  Ni2  1  0.00055306  0.99886545  0.33212248  1
  Ni  Ni3  1  0.99858238  0.33403595  0.00022599  1
  Ni  Ni4  1  0.16501623  0.50050212  0.16865198  1
  Ni  Ni5  1  0.00085235  0.33433030  0.33253170  1
  Ni  Ni6  1  0.99835005  0.66641344  1.00012396  1
  Ni  Ni7  1  0.16616928  0.83419366  0.16748771  1
  Ni  Ni8  1  0.99968728  0.66727396  0.33368131  1
  Ni  Ni9  1  0.33439667  0.00017646  1.00013674  1
  Ni  Ni10  1  0.50109043  0.16588061  0.16782208  1
  Ni  Ni11  1  0.33378700  0.99990172  0.33336109  1
  Cr  Cr12  1  0.33334630  0.33198489  0.99990381  1
  Ni  Ni13  1  0.50219213  0.50029713  0.16834168  1
  Ni  Ni14  1  0.33335551  0.33321899  0.33330866  1
  Cr  Cr15  1  0.33391638  0.66915337  0.00047963  1
  Ni  Ni16  1  0.50082010  0.83439058  0.16761467  1
  Ni  Ni17  1  0.33351390  0.66739803  0.33318928  1
  Ni  Ni18  1  0.66630062  0.99967452  0.00042624  1
  Ni  Ni19  1  0.83328893  0.16698137  0.16658789  1
  Ni  Ni20  1  0.66617217  0.99878905  0.33269144  1
  Ni  Ni21  1  0.66905738  0.33283389  0.99981416  1
  Ni  Ni22  1  0.83342738  0.50016794  0.16680468  1
  Ni  Ni23  1  0.66629288  0.33404036  0.33254047  1
  Ni  Ni24  1  0.66931385  0.66798427  0.00043058  1
  Ni  Ni25  1  0.83343740  0.83329601  0.16699073  1
  Ni  Ni26  1  0.66728178  0.66771278  0.33304399  1
  Ni  Ni27  1  0.16824626  0.16445068  0.49816571  1
  Ni  Ni28  1  0.00050954  0.99748850  0.66818767  1
  Ni  Ni29  1  0.16571317  0.16363762  0.83459052  1
  Ni  Ni30  1  0.16715385  0.50253346  0.49817752  1
  Cr  Cr31  1  0.99933660  0.33448140  0.66716075  1
  Ni  Ni32  1  0.16489416  0.50241398  0.83351316  1
  Ni  Ni33  1  0.16692965  0.83349998  0.50043081  1
  Ni  Ni34  1  0.99967597  0.66874483  0.66664409  1
  Ni  Ni35  1  0.16616454  0.83421194  0.83275054  1
  Ni  Ni36  1  0.49957079  0.16599719  0.49943748  1
  Ni  Ni37  1  0.33376714  0.99847961  0.66701512  1
  Ni  Ni38  1  0.50206723  0.16476444  0.83322320  1
  Ni  Ni39  1  0.50107193  0.50133382  0.49943778  1
  Cr  Cr40  1  0.33430456  0.33319043  0.66721438  1
  Ni  Ni41  1  0.50320700  0.50149265  0.83279066  1
  Ni  Ni42  1  0.49990829  0.83318901  0.50024575  1
  Ni  Ni43  1  0.33348110  0.66881254  0.66715982  1
  Ni  Ni44  1  0.50085758  0.83433967  0.83271469  1
  Cr  Cr45  1  0.83252713  0.16545568  0.49914573  1
  Ni  Ni46  1  0.66619950  0.99872155  0.66740007  1
  Ni  Ni47  1  0.83247502  0.16590495  0.83458035  1
  Ni  Ni48  1  0.83219702  0.50263413  0.49927577  1
  Ni  Ni49  1  0.66626772  0.33401545  0.66809659  1
  Ni  Ni50  1  0.83247359  0.50111334  0.83425602  1
  Ni  Ni51  1  0.83367535  0.83196822  0.50025233  1
  Ni  Ni52  1  0.66732106  0.66777196  0.66703863  1
  Ni  Ni53  1  0.83341953  0.83334387  0.83337560  1
" 