6331,Ni90Fe2Cr7_16,-236.697332328596, 170.80479308355,Ni90Fe2Cr7,"# generated using pymatgen
 data_Cr5FeNi48
_symmetry_space_group_name_H-M   'P 1'
_cell_length_a   7.46366546
_cell_length_b   7.46366546
_cell_length_c   10.55521691
_cell_angle_alpha   90.00000000
_cell_angle_beta   90.00000000
_cell_angle_gamma   90.00000000
_symmetry_Int_Tables_number   1
_chemical_formula_structural   Cr5FeNi48
_chemical_formula_sum   'Cr5 Fe1 Ni48'
_cell_volume   587.99210163
_cell_formula_units_Z   1
loop_
 _symmetry_equiv_pos_site_id
 _symmetry_equiv_pos_as_xyz
  1  'x, y, z'
loop_
 _atom_site_type_symbol
 _atom_site_label
 _atom_site_symmetry_multiplicity
 _atom_site_fract_x
 _atom_site_fract_y
 _atom_site_fract_z
 _atom_site_occupancy
  Ni  Ni0  1  1.00008645  0.00035332  0.00280896  1
  Ni  Ni1  1  0.16720434  0.16665577  0.16671638  1
  Ni  Ni2  1  0.99997594  0.99995694  0.33347529  1
  Ni  Ni3  1  0.00035977  0.33342431  0.00270354  1
  Ni  Ni4  1  0.16713740  0.50045243  0.16722330  1
  Ni  Ni5  1  0.00096025  0.33287382  0.33228769  1
  Ni  Ni6  1  0.99846648  0.66699881  0.00191186  1
  Ni  Ni7  1  0.16730886  0.83354664  0.16683273  1
  Ni  Ni8  1  0.00193080  0.66792501  0.33262752  1
  Ni  Ni9  1  0.33470787  0.00137255  0.00167960  1
  Ni  Ni10  1  0.50046786  0.16671344  0.16684553  1
  Ni  Ni11  1  0.33387906  1.00013452  0.33327847  1
  Ni  Ni12  1  0.33454726  0.33265271  0.00153640  1
  Ni  Ni13  1  0.50006039  0.50001532  0.16735563  1
  Ni  Ni14  1  0.33384936  0.33370893  0.33348445  1
  Ni  Ni15  1  0.33541832  0.66676436  0.00201488  1
  Ni  Ni16  1  0.49989060  0.83398151  0.16700876  1
  Ni  Ni17  1  0.33297843  0.66691404  0.33378620  1
  Ni  Ni18  1  0.66603410  0.99944467  0.00083670  1
  Ni  Ni19  1  0.83301659  0.16691225  0.16756708  1
  Ni  Ni20  1  0.66677188  0.00080973  0.33378914  1
  Ni  Ni21  1  0.66582022  0.33423047  0.00087224  1
  Ni  Ni22  1  0.83347070  0.49983551  0.16665137  1
  Ni  Ni23  1  0.66561498  0.33157425  0.33249901  1
  Ni  Ni24  1  0.66672460  0.66700912  0.00087618  1
  Ni  Ni25  1  0.83343078  0.83399939  0.16700924  1
  Fe  Fe26  1  0.66617020  0.66770036  0.33219211  1
  Ni  Ni27  1  0.16718516  0.16668097  0.50014171  1
  Ni  Ni28  1  0.00036364  0.00026319  0.66458089  1
  Ni  Ni29  1  0.16877758  0.16689256  0.83388298  1
  Ni  Ni30  1  0.16835486  0.50037594  0.50010679  1
  Ni  Ni31  1  0.00120800  0.33247730  0.66558018  1
  Cr  Cr32  1  0.16685908  0.49903571  0.83322180  1
  Ni  Ni33  1  0.16737454  0.83368735  0.50010503  1
  Ni  Ni34  1  0.00053021  0.66791210  0.66600512  1
  Cr  Cr35  1  0.16753716  0.83584394  0.83418860  1
  Ni  Ni36  1  0.50036972  0.16668211  0.50009863  1
  Ni  Ni37  1  0.33458499  0.00124261  0.66586891  1
  Ni  Ni38  1  0.49900881  0.16662300  0.83362956  1
  Ni  Ni39  1  0.49764805  0.49916319  0.49896807  1
  Ni  Ni40  1  0.33455997  0.33248637  0.66569420  1
  Ni  Ni41  1  0.50062539  0.49931879  0.83449415  1
  Ni  Ni42  1  0.49904824  0.83481789  0.49890793  1
  Ni  Ni43  1  0.33384603  0.66698497  0.66491026  1
  Ni  Ni44  1  0.50069325  0.83463757  0.83480226  1
  Ni  Ni45  1  0.83310426  0.16526137  0.49976674  1
  Ni  Ni46  1  0.66592114  0.00091019  0.66594875  1
  Cr  Cr47  1  0.83400000  0.16681554  0.83325217  1
  Cr  Cr48  1  0.83387773  0.49814610  0.49871711  1
  Ni  Ni49  1  0.66487919  0.33216875  0.66701411  1
  Ni  Ni50  1  0.83263547  0.50055458  0.83483159  1
  Ni  Ni51  1  0.83430333  0.83598520  0.49928463  1
  Cr  Cr52  1  0.66579276  0.66799503  0.66783257  1
  Ni  Ni53  1  0.83286294  0.83331251  0.83453002  1
" 