8309,Ni90Fe2Cr7_17,-236.683042137845, 172.836984739807,Ni90Fe2Cr7,"# generated using pymatgen
 data_Cr5FeNi48
_symmetry_space_group_name_H-M   'P 1'
_cell_length_a   7.46326419
_cell_length_b   7.46326419
_cell_length_c   10.55464944
_cell_angle_alpha   90.00000000
_cell_angle_beta   90.00000000
_cell_angle_gamma   90.00000000
_symmetry_Int_Tables_number   1
_chemical_formula_structural   Cr5FeNi48
_chemical_formula_sum   'Cr5 Fe1 Ni48'
_cell_volume   587.89727053
_cell_formula_units_Z   1
loop_
 _symmetry_equiv_pos_site_id
 _symmetry_equiv_pos_as_xyz
  1  'x, y, z'
loop_
 _atom_site_type_symbol
 _atom_site_label
 _atom_site_symmetry_multiplicity
 _atom_site_fract_x
 _atom_site_fract_y
 _atom_site_fract_z
 _atom_site_occupancy
  Ni  Ni0  1  1.00024850  0.99884874  0.00059949  1
  Ni  Ni1  1  0.16582752  0.16582762  0.16757603  1
  Ni  Ni2  1  0.00032888  0.00067921  0.33340611  1
  Cr  Cr3  1  0.00041614  0.33319548  0.00028386  1
  Ni  Ni4  1  0.16744170  0.50171802  0.16781440  1
  Ni  Ni5  1  1.00015332  0.33321396  0.33372283  1
  Ni  Ni6  1  1.00006886  0.66850341  0.00054122  1
  Ni  Ni7  1  0.16680347  0.83321430  0.16717649  1
  Ni  Ni8  1  0.00194552  0.66686762  0.33364561  1
  Ni  Ni9  1  0.33301742  0.99931547  0.99945568  1
  Cr  Cr10  1  0.50062291  0.16676335  0.16698094  1
  Ni  Ni11  1  0.33181083  0.00050602  0.33358491  1
  Ni  Ni12  1  0.33481440  0.33446305  0.99924899  1
  Ni  Ni13  1  0.49965163  0.50140035  0.16588188  1
  Ni  Ni14  1  0.33287015  0.33427055  0.33464346  1
  Ni  Ni15  1  0.33425274  0.66698266  0.00069170  1
  Ni  Ni16  1  0.49941519  0.83265853  0.16598264  1
  Ni  Ni17  1  0.33124986  0.66598324  0.33252892  1
  Ni  Ni18  1  0.66749512  0.99940739  0.99954350  1
  Ni  Ni19  1  0.83422285  0.16606440  0.16805128  1
  Ni  Ni20  1  0.66862082  0.00229999  0.33376622  1
  Ni  Ni21  1  0.66597416  0.33464183  0.99983046  1
  Ni  Ni22  1  0.83366664  0.50042400  0.16699422  1
  Ni  Ni23  1  0.66773693  0.33265339  0.33426837  1
  Ni  Ni24  1  0.66643851  0.66671060  1.00022441  1
  Ni  Ni25  1  0.83454108  0.83427245  0.16564939  1
  Cr  Cr26  1  0.66736027  0.66605493  0.33293408  1
  Ni  Ni27  1  0.16680245  0.16707440  0.50047336  1
  Ni  Ni28  1  0.00044057  1.00017111  0.66675463  1
  Ni  Ni29  1  0.16758253  0.16583163  0.83271138  1
  Ni  Ni30  1  0.16662284  0.50027945  0.50041467  1
  Ni  Ni31  1  0.00195944  0.33364122  0.66670707  1
  Ni  Ni32  1  0.16740294  0.50128722  0.83253163  1
  Ni  Ni33  1  0.16524077  0.83340624  0.49993804  1
  Ni  Ni34  1  0.00026108  0.66694784  0.66657396  1
  Ni  Ni35  1  0.16763340  0.83364138  0.83364525  1
  Ni  Ni36  1  0.49989046  0.16763766  0.49955263  1
  Ni  Ni37  1  0.33263278  0.00095426  0.66771881  1
  Ni  Ni38  1  0.49988732  0.16565271  0.83426701  1
  Ni  Ni39  1  0.49883088  0.49847803  0.50023589  1
  Ni  Ni40  1  0.33189614  0.33364324  0.66686794  1
  Ni  Ni41  1  0.49988515  0.50128447  0.83464233  1
  Cr  Cr42  1  0.49943304  0.83463117  0.50087813  1
  Ni  Ni43  1  0.33281397  0.66616197  0.66753898  1
  Ni  Ni44  1  0.49983657  0.83382294  0.83372298  1
  Ni  Ni45  1  0.83406679  0.16625616  0.49894132  1
  Ni  Ni46  1  0.66768936  0.99925276  0.66745156  1
  Ni  Ni47  1  0.83329060  0.16588147  0.83376709  1
  Ni  Ni48  1  0.83530534  0.50003905  0.50017957  1
  Cr  Cr49  1  0.66671924  0.33380346  0.66649837  1
  Ni  Ni50  1  0.83347274  0.50123448  0.83358698  1
  Ni  Ni51  1  0.83586720  0.83446603  0.50170551  1
  Ni  Ni52  1  0.66768700  0.66768416  0.66782690  1
  Fe  Fe53  1  0.83354133  0.83358228  0.83352826  1
" 