224,Ni90Fe2Cr7_15,-236.650634940735, 170.196013896745,Ni90Fe2Cr7,"# generated using pymatgen
 data_Cr5FeNi48
_symmetry_space_group_name_H-M   'P 1'
_cell_length_a   7.46437411
_cell_length_b   7.46437411
_cell_length_c   10.55621911
_cell_angle_alpha   90.00000000
_cell_angle_beta   90.00000000
_cell_angle_gamma   90.00000000
_symmetry_Int_Tables_number   1
_chemical_formula_structural   Cr5FeNi48
_chemical_formula_sum   'Cr5 Fe1 Ni48'
_cell_volume   588.15960272
_cell_formula_units_Z   1
loop_
 _symmetry_equiv_pos_site_id
 _symmetry_equiv_pos_as_xyz
  1  'x, y, z'
loop_
 _atom_site_type_symbol
 _atom_site_label
 _atom_site_symmetry_multiplicity
 _atom_site_fract_x
 _atom_site_fract_y
 _atom_site_fract_z
 _atom_site_occupancy
  Cr  Cr0  1  0.00330987  0.99916664  0.00082089  1
  Ni  Ni1  1  0.16801161  0.16806929  0.16780028  1
  Ni  Ni2  1  0.00055768  0.99998538  0.33356524  1
  Ni  Ni3  1  0.00143920  0.33611630  0.00120292  1
  Ni  Ni4  1  0.16707077  0.50035118  0.16730259  1
  Ni  Ni5  1  0.99935040  0.33460659  0.33241639  1
  Ni  Ni6  1  0.00143369  0.66446461  0.99913176  1
  Ni  Ni7  1  0.16951612  0.83214376  0.16810373  1
  Ni  Ni8  1  0.00138454  0.66586011  0.33414262  1
  Ni  Ni9  1  0.33518673  1.00006772  0.00031200  1
  Ni  Ni10  1  0.50006846  0.16676441  0.16702626  1
  Ni  Ni11  1  0.33433609  0.99911785  0.33210896  1
  Ni  Ni12  1  0.33374378  0.33379110  0.99981965  1
  Ni  Ni13  1  0.50011719  0.50071399  0.16721533  1
  Ni  Ni14  1  0.33477595  0.33466203  0.33328227  1
  Ni  Ni15  1  0.33339461  0.66670946  0.00050697  1
  Ni  Ni16  1  0.49854211  0.83311033  0.16666373  1
  Ni  Ni17  1  0.33354489  0.66685181  0.33344442  1
  Ni  Ni18  1  0.66356212  1.00011346  0.99996724  1
  Ni  Ni19  1  0.83250953  0.16914264  0.16812046  1
  Ni  Ni20  1  0.66561642  0.00110671  0.33455752  1
  Ni  Ni21  1  0.66535750  0.33477164  0.00154287  1
  Ni  Ni22  1  0.83339683  0.49880295  0.16636390  1
  Ni  Ni23  1  0.66658503  0.33380404  0.33337157  1
  Ni  Ni24  1  0.66564132  0.66564168  0.99879646  1
  Cr  Cr25  1  0.83137933  0.83145059  0.16768292  1
  Ni  Ni26  1  0.66564312  0.66550729  0.33462710  1
  Cr  Cr27  1  0.16737037  0.16731291  0.50106771  1
  Ni  Ni28  1  0.00046450  0.99802715  0.66655108  1
  Ni  Ni29  1  0.16930890  0.16775975  0.83223703  1
  Ni  Ni30  1  0.16664248  0.50232963  0.50033391  1
  Ni  Ni31  1  0.00122504  0.33557626  0.66715006  1
  Ni  Ni32  1  0.16707533  0.50045151  0.83288712  1
  Ni  Ni33  1  0.16798841  0.83196528  0.49984845  1
  Ni  Ni34  1  0.00055200  0.66687173  0.66695659  1
  Ni  Ni35  1  0.16824421  0.83220529  0.83263204  1
  Ni  Ni36  1  0.50103182  0.16535590  0.49951534  1
  Ni  Ni37  1  0.33437856  0.99878367  0.66820316  1
  Ni  Ni38  1  0.49757810  0.16580553  0.83395049  1
  Ni  Ni39  1  0.49941531  0.50201198  0.49921059  1
  Ni  Ni40  1  0.33309953  0.33486039  0.66756300  1
  Ni  Ni41  1  0.49908859  0.50169273  0.83411088  1
  Ni  Ni42  1  0.49941855  0.83317485  0.50001917  1
  Ni  Ni43  1  0.33352567  0.66694481  0.66660378  1
  Ni  Ni44  1  0.50000769  0.83304351  0.83384730  1
  Ni  Ni45  1  0.83312049  0.16660714  0.49888416  1
  Ni  Ni46  1  0.66569786  0.99794956  0.66583170  1
  Cr  Cr47  1  0.83336852  0.16736839  0.83396614  1
  Ni  Ni48  1  0.83443741  0.50057437  0.49920661  1
  Cr  Cr49  1  0.66470947  0.33538241  0.66547550  1
  Ni  Ni50  1  0.83431041  0.50295562  0.83494428  1
  Fe  Fe51  1  0.83326751  0.83273412  0.50024280  1
  Ni  Ni52  1  0.66654610  0.66817561  0.66686486  1
  Ni  Ni53  1  0.83232283  0.83085686  0.83167074  1
" 