1723,Ni90Fe3Cr5_16,-237.774323626098, 176.846078714119,Ni90Fe3Cr5,"# generated using pymatgen
 data_Cr2FeNi24
_symmetry_space_group_name_H-M   'P 1'
_cell_length_a   7.45859922
_cell_length_b   7.45859922
_cell_length_c   10.54805218
_cell_angle_alpha   90.00000000
_cell_angle_beta   90.00000000
_cell_angle_gamma   90.00000000
_symmetry_Int_Tables_number   1
_chemical_formula_structural   Cr2FeNi24
_chemical_formula_sum   'Cr4 Fe2 Ni48'
_cell_volume   586.79555148
_cell_formula_units_Z   2
loop_
 _symmetry_equiv_pos_site_id
 _symmetry_equiv_pos_as_xyz
  1  'x, y, z'
loop_
 _atom_site_type_symbol
 _atom_site_label
 _atom_site_symmetry_multiplicity
 _atom_site_fract_x
 _atom_site_fract_y
 _atom_site_fract_z
 _atom_site_occupancy
  Cr  Cr0  1  1.00038673  0.00071626  0.00131187  1
  Ni  Ni1  1  0.16828416  0.16789190  0.16847589  1
  Ni  Ni2  1  0.99898343  0.00272679  0.33325719  1
  Ni  Ni3  1  1.00046646  0.33586386  0.00102198  1
  Ni  Ni4  1  0.16691645  0.49976578  0.16600619  1
  Ni  Ni5  1  1.00006494  0.33288211  0.33368654  1
  Ni  Ni6  1  0.00058965  0.66569273  1.00056463  1
  Ni  Ni7  1  0.16890042  0.83408026  0.16700421  1
  Cr  Cr8  1  1.00033510  0.66590888  0.33259593  1
  Ni  Ni9  1  0.33591359  1.00053907  0.00098140  1
  Ni  Ni10  1  0.50072493  0.16585058  0.16697512  1
  Ni  Ni11  1  0.33576189  0.00112811  0.33266651  1
  Ni  Ni12  1  0.33323572  0.33309793  0.99998247  1
  Cr  Cr13  1  0.50088327  0.49949014  0.16721581  1
  Ni  Ni14  1  0.33356865  0.33335941  0.33496983  1
  Ni  Ni15  1  0.33300365  0.66801585  0.99988419  1
  Ni  Ni16  1  0.50048376  0.83537933  0.16673080  1
  Ni  Ni17  1  0.33502348  0.66722944  0.33394702  1
  Ni  Ni18  1  0.66553586  0.00071788  0.00066817  1
  Ni  Ni19  1  0.83270853  0.16808496  0.16791643  1
  Ni  Ni20  1  0.66686317  0.00126278  0.33369033  1
  Ni  Ni21  1  0.66800723  0.33282074  0.99967205  1
  Ni  Ni22  1  0.83434706  0.49946743  0.16576269  1
  Ni  Ni23  1  0.66805234  0.33194777  0.33477608  1
  Ni  Ni24  1  0.66815507  0.66817081  0.00058597  1
  Ni  Ni25  1  0.83218852  0.83414733  0.16744953  1
  Fe  Fe26  1  0.66647213  0.66788015  0.33477188  1
  Ni  Ni27  1  0.16725511  0.16856398  0.50046652  1
  Ni  Ni28  1  0.99925616  0.00144853  0.66742751  1
  Ni  Ni29  1  0.16846906  0.16754976  0.83275321  1
  Ni  Ni30  1  0.16827459  0.49835580  0.50162571  1
  Ni  Ni31  1  1.00039643  0.33427704  0.66700505  1
  Ni  Ni32  1  0.16771003  0.50096716  0.83406383  1
  Cr  Cr33  1  0.16739431  0.83587674  0.50198590  1
  Ni  Ni34  1  0.99960952  0.66601360  0.66853984  1
  Ni  Ni35  1  0.16738883  0.83320977  0.83322404  1
  Ni  Ni36  1  0.50070588  0.16734305  0.50047336  1
  Ni  Ni37  1  0.33540865  0.00157749  0.66801833  1
  Ni  Ni38  1  0.50061032  0.16811392  0.83430608  1
  Ni  Ni39  1  0.50068741  0.50031328  0.50058923  1
  Ni  Ni40  1  0.33435827  0.33408620  0.66670593  1
  Ni  Ni41  1  0.50085942  0.49992418  0.83364142  1
  Ni  Ni42  1  0.50200710  0.83401800  0.50083079  1
  Ni  Ni43  1  0.33488024  0.66601754  0.66791772  1
  Fe  Fe44  1  0.50083923  0.83364244  0.83380319  1
  Ni  Ni45  1  0.83372051  0.16707073  0.50079972  1
  Ni  Ni46  1  0.66704727  0.00085746  0.66728039  1
  Ni  Ni47  1  0.83262267  0.16773198  0.83302244  1
  Ni  Ni48  1  0.83267436  0.49951428  0.50159263  1
  Ni  Ni49  1  0.66694628  0.33380910  0.66727392  1
  Ni  Ni50  1  0.83312598  0.50105827  0.83429184  1
  Ni  Ni51  1  0.83148868  0.83512232  0.50140024  1
  Ni  Ni52  1  0.66723658  0.66704063  0.66616075  1
  Ni  Ni53  1  0.83375390  0.83296147  0.83281268  1
" 