117,Ni90Fe3Cr5_14,-237.858786705463, 176.498020513617,Ni90Fe3Cr5,"# generated using pymatgen
 data_Cr2FeNi24
_symmetry_space_group_name_H-M   'P 1'
_cell_length_a   7.45824623
_cell_length_b   7.45824623
_cell_length_c   10.54755297
_cell_angle_alpha   90.00000000
_cell_angle_beta   90.00000000
_cell_angle_gamma   90.00000000
_symmetry_Int_Tables_number   1
_chemical_formula_structural   Cr2FeNi24
_chemical_formula_sum   'Cr4 Fe2 Ni48'
_cell_volume   586.71224188
_cell_formula_units_Z   2
loop_
 _symmetry_equiv_pos_site_id
 _symmetry_equiv_pos_as_xyz
  1  'x, y, z'
loop_
 _atom_site_type_symbol
 _atom_site_label
 _atom_site_symmetry_multiplicity
 _atom_site_fract_x
 _atom_site_fract_y
 _atom_site_fract_z
 _atom_site_occupancy
  Ni  Ni0  1  1.00044382  0.00067411  1.00017216  1
  Ni  Ni1  1  0.16695424  0.16731115  0.16707132  1
  Ni  Ni2  1  0.99956525  0.00100341  0.33403425  1
  Ni  Ni3  1  1.00032821  0.33379604  0.00071531  1
  Ni  Ni4  1  0.16614645  0.49982698  0.16648721  1
  Ni  Ni5  1  0.00069569  0.33333591  0.33393225  1
  Ni  Ni6  1  0.00078177  0.66729151  0.00117921  1
  Ni  Ni7  1  0.16574676  0.83473975  0.16699594  1
  Ni  Ni8  1  0.99935979  0.66749767  0.33399660  1
  Ni  Ni9  1  0.33293181  0.99942920  0.00253685  1
  Ni  Ni10  1  0.50045570  0.16713989  0.16803367  1
  Fe  Fe11  1  0.33404415  0.00206581  0.33309526  1
  Ni  Ni12  1  0.33302351  0.33507503  0.00143240  1
  Ni  Ni13  1  0.50123364  0.49990153  0.16612891  1
  Ni  Ni14  1  0.33292557  0.33228822  0.33322203  1
  Ni  Ni15  1  0.33380931  0.66732631  1.00000049  1
  Ni  Ni16  1  0.50179861  0.83483053  0.16624096  1
  Cr  Cr17  1  0.33311751  0.66731252  0.33308525  1
  Ni  Ni18  1  0.66843241  0.99988744  0.00119591  1
  Ni  Ni19  1  0.83437162  0.16670150  0.16716949  1
  Ni  Ni20  1  0.66805420  0.00078594  0.33418561  1
  Ni  Ni21  1  0.66840121  0.33465716  0.00172680  1
  Ni  Ni22  1  0.83438543  0.50105421  0.16819685  1
  Ni  Ni23  1  0.66818183  0.33242158  0.33326200  1
  Ni  Ni24  1  0.66718391  0.66718648  0.00094990  1
  Ni  Ni25  1  0.83421550  0.83402758  0.16728450  1
  Ni  Ni26  1  0.66905237  0.66864240  0.33293400  1
  Ni  Ni27  1  0.16612511  0.16886297  0.49973469  1
  Ni  Ni28  1  0.99873847  0.00092140  0.66758205  1
  Ni  Ni29  1  0.16487652  0.16807093  0.83491513  1
  Ni  Ni30  1  0.16478821  0.49905865  0.50162319  1
  Ni  Ni31  1  1.00042470  0.33369701  0.66707973  1
  Ni  Ni32  1  0.16697030  0.50067030  0.83363380  1
  Fe  Fe33  1  0.16435365  0.83370845  0.50073825  1
  Ni  Ni34  1  1.00051168  0.66717316  0.66661140  1
  Ni  Ni35  1  0.16596704  0.83303860  0.83421230  1
  Ni  Ni36  1  0.50095312  0.16611511  0.49929181  1
  Cr  Cr37  1  0.33301062  0.99974037  0.66571129  1
  Cr  Cr38  1  0.50134416  0.16807772  0.83458082  1
  Cr  Cr39  1  0.50170972  0.49992761  0.50224520  1
  Ni  Ni40  1  0.33191122  0.33537348  0.66720934  1
  Ni  Ni41  1  0.50046081  0.50234799  0.83367736  1
  Ni  Ni42  1  0.50340464  0.83536519  0.50076881  1
  Ni  Ni43  1  0.33307832  0.66662598  0.66853623  1
  Ni  Ni44  1  0.50156308  0.83157457  0.83465076  1
  Ni  Ni45  1  0.83462646  0.16657054  0.50107938  1
  Ni  Ni46  1  0.66973554  0.99979003  0.66641382  1
  Ni  Ni47  1  0.83589618  0.16690946  0.83351486  1
  Ni  Ni48  1  0.83622218  0.50128076  0.50007227  1
  Ni  Ni49  1  0.66944189  0.33363006  0.66678175  1
  Ni  Ni50  1  0.83432960  0.50115902  0.83348543  1
  Ni  Ni51  1  0.83344812  0.83391655  0.50063207  1
  Ni  Ni52  1  0.66814011  0.66836361  0.66792143  1
  Ni  Ni53  1  0.83419061  0.83368299  0.83389405  1
" 