855,Ni90Fe4Cr4_5,-237.712533495973, 176.751091509093,Ni90Fe4Cr4,"# generated using pymatgen
 data_Cr2FeNi24
_symmetry_space_group_name_H-M   'P 1'
_cell_length_a   7.45655250
_cell_length_b   7.45655250
_cell_length_c   10.54515767
_cell_angle_alpha   90.00000000
_cell_angle_beta   90.00000000
_cell_angle_gamma   90.00000000
_symmetry_Int_Tables_number   1
_chemical_formula_structural   Cr2FeNi24
_chemical_formula_sum   'Cr4 Fe2 Ni48'
_cell_volume   586.31261342
_cell_formula_units_Z   2
loop_
 _symmetry_equiv_pos_site_id
 _symmetry_equiv_pos_as_xyz
  1  'x, y, z'
loop_
 _atom_site_type_symbol
 _atom_site_label
 _atom_site_symmetry_multiplicity
 _atom_site_fract_x
 _atom_site_fract_y
 _atom_site_fract_z
 _atom_site_occupancy
  Ni  Ni0  1  0.99956286  1.00006649  0.99962282  1
  Cr  Cr1  1  0.16720395  0.16824445  0.16753415  1
  Ni  Ni2  1  1.00033557  0.99988786  0.33515098  1
  Ni  Ni3  1  0.99940591  0.33478922  1.00005676  1
  Ni  Ni4  1  0.16759895  0.50152738  0.16737798  1
  Ni  Ni5  1  0.00108894  0.33434527  0.33489786  1
  Ni  Ni6  1  1.00052359  0.66725423  0.00082122  1
  Fe  Fe7  1  0.16736326  0.83240876  0.16741796  1
  Ni  Ni8  1  1.00048534  0.66787634  0.33395470  1
  Ni  Ni9  1  0.33540759  1.00006663  0.99939120  1
  Ni  Ni10  1  0.50106110  0.16648040  0.16625825  1
  Ni  Ni11  1  0.33440783  0.99988835  0.33515017  1
  Ni  Ni12  1  0.33454898  0.33377421  0.00107143  1
  Ni  Ni13  1  0.49960055  0.50204322  0.16669187  1
  Ni  Ni14  1  0.33365166  0.33434163  0.33489712  1
  Ni  Ni15  1  0.33343079  0.66827107  0.00183654  1
  Ni  Ni16  1  0.50158404  0.83358270  0.16727394  1
  Ni  Ni17  1  0.33425572  0.66787948  0.33395453  1
  Ni  Ni18  1  0.66714091  0.00118305  0.00147401  1
  Ni  Ni19  1  0.83362577  0.16630259  0.16643730  1
  Fe  Fe20  1  0.66736718  0.99902458  0.33363496  1
  Ni  Ni21  1  0.66815674  0.33281722  0.00134418  1
  Ni  Ni22  1  0.83491179  0.50204331  0.16633076  1
  Cr  Cr23  1  0.66737251  0.33427624  0.33403219  1
  Ni  Ni24  1  0.66815591  0.66811026  0.00144112  1
  Ni  Ni25  1  0.83310514  0.83376065  0.16745301  1
  Ni  Ni26  1  0.66737005  0.66863132  0.33429366  1
  Ni  Ni27  1  0.16742137  0.16746554  0.50093031  1
  Ni  Ni28  1  0.00235242  0.00075103  0.66733748  1
  Ni  Ni29  1  0.16724229  0.16704151  0.83365523  1
  Ni  Ni30  1  0.16759905  0.50022045  0.50048527  1
  Ni  Ni31  1  1.00039033  0.33418373  0.66715701  1
  Ni  Ni32  1  0.16570100  0.50044696  0.83424801  1
  Ni  Ni33  1  0.16742143  0.83442369  0.50034819  1
  Ni  Ni34  1  1.00057737  0.66717648  0.66733605  1
  Ni  Ni35  1  0.16724230  0.83462161  0.83447001  1
  Ni  Ni36  1  0.49859352  0.16748513  0.50058723  1
  Ni  Ni37  1  0.33261888  0.00075083  0.66756955  1
  Ni  Ni38  1  0.49948104  0.16627204  0.83526755  1
  Ni  Ni39  1  0.49986477  0.50164832  0.50134799  1
  Ni  Ni40  1  0.33356373  0.33316701  0.66614105  1
  Cr  Cr41  1  0.50091463  0.50102534  0.83382538  1
  Ni  Ni42  1  0.50002417  0.83297532  0.49998538  1
  Ni  Ni43  1  0.33337608  0.66819373  0.66631963  1
  Ni  Ni44  1  0.49989796  0.83497785  0.83485334  1
  Ni  Ni45  1  0.83609653  0.16730764  0.50040813  1
  Cr  Cr46  1  0.66716949  0.00090678  0.66711303  1
  Ni  Ni47  1  0.83538780  0.16781453  0.83526722  1
  Ni  Ni48  1  0.83464718  0.50164824  0.50170915  1
  Ni  Ni49  1  0.66815812  0.33494154  0.66673501  1
  Ni  Ni50  1  0.83574333  0.50086352  0.83407148  1
  Ni  Ni51  1  0.83466571  0.83315298  0.49980633  1
  Ni  Ni52  1  0.66815863  0.66623089  0.66637382  1
  Ni  Ni53  1  0.83497077  0.83343296  0.83485307  1
" 