7831,Ni90Fe4Cr4_16,-237.804331870367, 175.513900916284,Ni90Fe4Cr4,"# generated using pymatgen
 data_Cr2FeNi24
_symmetry_space_group_name_H-M   'P 1'
_cell_length_a   7.45797265
_cell_length_b   7.45797265
_cell_length_c   10.54716607
_cell_angle_alpha   90.00000000
_cell_angle_beta   90.00000000
_cell_angle_gamma   90.00000000
_symmetry_Int_Tables_number   1
_chemical_formula_structural   Cr2FeNi24
_chemical_formula_sum   'Cr4 Fe2 Ni48'
_cell_volume   586.64767883
_cell_formula_units_Z   2
loop_
 _symmetry_equiv_pos_site_id
 _symmetry_equiv_pos_as_xyz
  1  'x, y, z'
loop_
 _atom_site_type_symbol
 _atom_site_label
 _atom_site_symmetry_multiplicity
 _atom_site_fract_x
 _atom_site_fract_y
 _atom_site_fract_z
 _atom_site_occupancy
  Ni  Ni0  1  0.99876549  0.99970680  0.00102204  1
  Ni  Ni1  1  0.16656787  0.16781610  0.16768514  1
  Ni  Ni2  1  0.00071848  0.00072875  0.33454027  1
  Ni  Ni3  1  1.00036356  0.33453928  0.00157389  1
  Ni  Ni4  1  0.16820699  0.50064100  0.16697636  1
  Ni  Ni5  1  0.00109002  0.33381941  0.33361040  1
  Ni  Ni6  1  0.00299234  0.66755208  1.00044964  1
  Ni  Ni7  1  0.16655925  0.83333977  0.16698596  1
  Ni  Ni8  1  0.00111390  0.66724614  0.33338046  1
  Fe  Fe9  1  0.33434568  1.00001101  0.00227875  1
  Ni  Ni10  1  0.50133419  0.16797770  0.16695840  1
  Ni  Ni11  1  0.33375208  0.00077580  0.33301925  1
  Ni  Ni12  1  0.33467293  0.33589104  0.00126748  1
  Ni  Ni13  1  0.49882572  0.49970196  0.16835438  1
  Ni  Ni14  1  0.33364144  0.33401850  0.33429891  1
  Ni  Ni15  1  0.33234618  0.66631093  1.00019722  1
  Ni  Ni16  1  0.50040974  0.83410541  0.16822507  1
  Ni  Ni17  1  0.33360871  0.66702175  0.33408424  1
  Ni  Ni18  1  0.66802176  0.00200982  1.00040692  1
  Ni  Ni19  1  0.83393272  0.16635686  0.16697440  1
  Ni  Ni20  1  0.66736182  0.00075833  0.33388004  1
  Ni  Ni21  1  0.66682504  0.33170413  1.00017549  1
  Fe  Fe22  1  0.83459401  0.49980275  0.16814137  1
  Ni  Ni23  1  0.66712208  0.33361329  0.33363190  1
  Cr  Cr24  1  0.66735725  0.66714818  0.00075354  1
  Ni  Ni25  1  0.83486441  0.83586753  0.16834739  1
  Ni  Ni26  1  0.66711009  0.66743972  0.33408213  1
  Ni  Ni27  1  0.16598271  0.16847067  0.49923238  1
  Ni  Ni28  1  0.99986021  0.99969786  0.66630437  1
  Cr  Cr29  1  0.16587906  0.16873621  0.83486309  1
  Ni  Ni30  1  0.16728721  0.50078235  0.50098763  1
  Ni  Ni31  1  0.99979953  0.33511684  0.66660054  1
  Ni  Ni32  1  0.16739987  0.50223083  0.83390056  1
  Ni  Ni33  1  0.16601793  0.83258767  0.49969579  1
  Ni  Ni34  1  0.00077915  0.66700479  0.66795782  1
  Ni  Ni35  1  0.16587690  0.83104462  0.83510184  1
  Ni  Ni36  1  0.50096748  0.16969290  0.49845994  1
  Cr  Cr37  1  0.33329623  0.99990318  0.66618066  1
  Ni  Ni38  1  0.50256963  0.16973423  0.83631721  1
  Ni  Ni39  1  0.50082613  0.50077504  0.50096540  1
  Ni  Ni40  1  0.33465287  0.33658521  0.66629979  1
  Ni  Ni41  1  0.49972206  0.49970425  0.83265334  1
  Ni  Ni42  1  0.50085235  0.83142664  0.49832152  1
  Ni  Ni43  1  0.33367767  0.66556704  0.66762269  1
  Ni  Ni44  1  0.50000134  0.83244241  0.83525309  1
  Ni  Ni45  1  0.83487114  0.16831797  0.50013265  1
  Cr  Cr46  1  0.66870377  0.00075224  0.66732290  1
  Ni  Ni47  1  0.83332785  0.16816464  0.83468095  1
  Ni  Ni48  1  0.83372487  0.50076853  0.50002170  1
  Ni  Ni49  1  0.66738182  0.33555946  0.66796655  1
  Ni  Ni50  1  0.83481258  0.49966578  0.83387640  1
  Ni  Ni51  1  0.83488617  0.83272823  0.49988895  1
  Ni  Ni52  1  0.66736118  0.66560914  0.66727872  1
  Ni  Ni53  1  0.83583247  0.83388119  0.83366645  1
" 