1136,Ni90Fe3Cr5_3,-237.79153105173, 176.908558409093,Ni90Fe3Cr5,"# generated using pymatgen
 data_Cr2FeNi24
_symmetry_space_group_name_H-M   'P 1'
_cell_length_a   7.45793585
_cell_length_b   7.45793585
_cell_length_c   10.54711403
_cell_angle_alpha   90.00000000
_cell_angle_beta   90.00000000
_cell_angle_gamma   90.00000000
_symmetry_Int_Tables_number   1
_chemical_formula_structural   Cr2FeNi24
_chemical_formula_sum   'Cr4 Fe2 Ni48'
_cell_volume   586.63899563
_cell_formula_units_Z   2
loop_
 _symmetry_equiv_pos_site_id
 _symmetry_equiv_pos_as_xyz
  1  'x, y, z'
loop_
 _atom_site_type_symbol
 _atom_site_label
 _atom_site_symmetry_multiplicity
 _atom_site_fract_x
 _atom_site_fract_y
 _atom_site_fract_z
 _atom_site_occupancy
  Ni  Ni0  1  1.00027267  1.00059841  1.00059418  1
  Ni  Ni1  1  0.16742047  0.16607148  0.16615727  1
  Ni  Ni2  1  0.00062705  0.99891190  0.33377231  1
  Ni  Ni3  1  1.00045764  0.33391029  0.99991199  1
  Ni  Ni4  1  0.16840329  0.50109745  0.16690463  1
  Cr  Cr5  1  0.00077140  0.33437466  0.33448851  1
  Ni  Ni6  1  1.00055618  0.66731206  0.00118674  1
  Ni  Ni7  1  0.16732567  0.83471577  0.16774100  1
  Ni  Ni8  1  1.00041006  0.66891661  0.33373342  1
  Ni  Ni9  1  0.33309634  0.99909409  0.00123297  1
  Fe  Fe10  1  0.50071148  0.16679505  0.16748154  1
  Ni  Ni11  1  0.33403931  1.00028999  0.33424286  1
  Ni  Ni12  1  0.33280840  0.33517763  0.00196463  1
  Ni  Ni13  1  0.50086305  0.50098719  0.16731502  1
  Ni  Ni14  1  0.33442637  0.33295092  0.33273146  1
  Ni  Ni15  1  0.33415525  0.66750693  1.00013691  1
  Ni  Ni16  1  0.50068804  0.83329248  0.16751473  1
  Ni  Ni17  1  0.33319487  0.66851936  0.33357433  1
  Ni  Ni18  1  0.66840649  0.99925245  0.00140598  1
  Ni  Ni19  1  0.83386228  0.16625065  0.16685357  1
  Ni  Ni20  1  0.66716616  0.99998440  0.33402385  1
  Ni  Ni21  1  0.66856983  0.33488985  0.00150007  1
  Ni  Ni22  1  0.83256423  0.50117758  0.16662708  1
  Ni  Ni23  1  0.66664316  0.33310566  0.33319236  1
  Ni  Ni24  1  0.66711140  0.66767286  1.00037666  1
  Ni  Ni25  1  0.83382820  0.83440268  0.16739581  1
  Ni  Ni26  1  0.66814496  0.66855298  0.33306147  1
  Ni  Ni27  1  0.16790826  0.16505296  0.50090114  1
  Ni  Ni28  1  1.00048125  1.00029745  0.66729662  1
  Ni  Ni29  1  0.16452780  0.16604691  0.83491490  1
  Ni  Ni30  1  0.16526926  0.50206601  0.50035245  1
  Ni  Ni31  1  0.99892605  0.33406576  0.66743616  1
  Ni  Ni32  1  0.16599128  0.50141028  0.83470567  1
  Ni  Ni33  1  0.16662820  0.83474921  0.50028146  1
  Ni  Ni34  1  1.00045238  0.66736698  0.66692650  1
  Ni  Ni35  1  0.16681178  0.83443602  0.83379862  1
  Ni  Ni36  1  0.50094976  0.16491080  0.49868308  1
  Ni  Ni37  1  0.33325238  0.99789427  0.66630512  1
  Cr  Cr38  1  0.50142105  0.16619788  0.83554674  1
  Cr  Cr39  1  0.50207262  0.50188012  0.50006095  1
  Cr  Cr40  1  0.33175759  0.33410519  0.66751125  1
  Ni  Ni41  1  0.50195901  0.50288028  0.83480025  1
  Ni  Ni42  1  0.50105734  0.83607954  0.50112130  1
  Ni  Ni43  1  0.33290670  0.67026097  0.66818086  1
  Ni  Ni44  1  0.50080289  0.83254960  0.83324403  1
  Fe  Fe45  1  0.83357957  0.16576720  0.50120103  1
  Ni  Ni46  1  0.66812014  0.99930132  0.66620769  1
  Ni  Ni47  1  0.83570886  0.16714058  0.83316013  1
  Ni  Ni48  1  0.83438276  0.50226838  0.50137370  1
  Ni  Ni49  1  0.67084146  0.33375876  0.66693945  1
  Ni  Ni50  1  0.83389992  0.50059699  0.83394563  1
  Ni  Ni51  1  0.83409049  0.83330542  0.50005583  1
  Ni  Ni52  1  0.66844568  0.66869155  0.66850155  1
  Ni  Ni53  1  0.83421862  0.83409551  0.83441391  1
" 