6859,Ni90Fe3Cr5_13,-237.780082132857, 175.101595264661,Ni90Fe3Cr5,"# generated using pymatgen
 data_Cr2FeNi24
_symmetry_space_group_name_H-M   'P 1'
_cell_length_a   7.45769955
_cell_length_b   7.45769955
_cell_length_c   10.54677985
_cell_angle_alpha   90.00000000
_cell_angle_beta   90.00000000
_cell_angle_gamma   90.00000000
_symmetry_Int_Tables_number   1
_chemical_formula_structural   Cr2FeNi24
_chemical_formula_sum   'Cr4 Fe2 Ni48'
_cell_volume   586.58323539
_cell_formula_units_Z   2
loop_
 _symmetry_equiv_pos_site_id
 _symmetry_equiv_pos_as_xyz
  1  'x, y, z'
loop_
 _atom_site_type_symbol
 _atom_site_label
 _atom_site_symmetry_multiplicity
 _atom_site_fract_x
 _atom_site_fract_y
 _atom_site_fract_z
 _atom_site_occupancy
  Ni  Ni0  1  0.00264418  0.99866826  0.00085249  1
  Ni  Ni1  1  0.16694090  0.16671921  0.16697429  1
  Ni  Ni2  1  0.00174568  0.99978182  0.33459852  1
  Ni  Ni3  1  0.00417374  0.33548337  1.00048233  1
  Ni  Ni4  1  0.16688880  0.50151634  0.16718939  1
  Ni  Ni5  1  0.00181803  0.33451466  0.33475275  1
  Ni  Ni6  1  0.00096699  0.66762961  1.00030718  1
  Ni  Ni7  1  0.16836056  0.83362861  0.16738109  1
  Ni  Ni8  1  0.00095164  0.66752541  0.33425865  1
  Ni  Ni9  1  0.33285883  0.99964595  0.99923104  1
  Cr  Cr10  1  0.49856819  0.16584153  0.16795696  1
  Ni  Ni11  1  0.33290938  0.99977429  0.33523690  1
  Ni  Ni12  1  0.33147766  0.33487048  1.00012358  1
  Ni  Ni13  1  0.49996560  0.50368964  0.16810494  1
  Ni  Ni14  1  0.33297343  0.33476490  0.33416672  1
  Ni  Ni15  1  0.33385507  0.66736652  0.00072648  1
  Ni  Ni16  1  0.49962282  0.83236416  0.16717640  1
  Ni  Ni17  1  0.33382551  0.66740535  0.33395399  1
  Ni  Ni18  1  0.66642528  0.99639827  0.99989430  1
  Cr  Cr19  1  0.83602704  0.16710769  0.16819025  1
  Ni  Ni20  1  0.66726286  0.99878521  0.33542103  1
  Cr  Cr21  1  0.66572643  0.33690842  0.99917571  1
  Ni  Ni22  1  0.83503576  0.50238008  0.16791910  1
  Ni  Ni23  1  0.66708830  0.33553448  0.33613686  1
  Ni  Ni24  1  0.66713300  0.66907762  1.00055570  1
  Fe  Fe25  1  0.83453488  0.83216283  0.16748013  1
  Ni  Ni26  1  0.66713236  0.66744161  0.33381481  1
  Ni  Ni27  1  0.16699676  0.16731716  0.50011833  1
  Ni  Ni28  1  0.00084973  0.99960660  0.66652194  1
  Ni  Ni29  1  0.16849011  0.16715236  0.83470878  1
  Ni  Ni30  1  0.16723984  0.50119534  0.50034525  1
  Ni  Ni31  1  0.00217195  0.33428570  0.66666709  1
  Ni  Ni32  1  0.16724218  0.50127783  0.83437140  1
  Ni  Ni33  1  0.16739911  0.83333949  0.50065066  1
  Ni  Ni34  1  0.00095136  0.66807231  0.66739235  1
  Ni  Ni35  1  0.16746731  0.83342243  0.83378246  1
  Ni  Ni36  1  0.50087215  0.16714307  0.50052044  1
  Fe  Fe37  1  0.33368001  1.00044282  0.66707539  1
  Ni  Ni38  1  0.49851924  0.16612353  0.83329293  1
  Ni  Ni39  1  0.50050662  0.50120190  0.50012690  1
  Ni  Ni40  1  0.33393913  0.33440154  0.66762811  1
  Ni  Ni41  1  0.49959860  0.50211453  0.83361717  1
  Ni  Ni42  1  0.50049596  0.83352081  0.50042507  1
  Ni  Ni43  1  0.33392319  0.66659329  0.66718103  1
  Ni  Ni44  1  0.50033116  0.83353594  0.83419421  1
  Ni  Ni45  1  0.83400300  0.16732936  0.50040706  1
  Ni  Ni46  1  0.66719730  0.99957349  0.66671451  1
  Cr  Cr47  1  0.83501945  0.16682260  0.83330797  1
  Ni  Ni48  1  0.83414105  0.50075441  0.50094930  1
  Ni  Ni49  1  0.66579009  0.33444337  0.66630698  1
  Ni  Ni50  1  0.83504123  0.50308503  0.83297851  1
  Ni  Ni51  1  0.83399101  0.83375986  0.50000086  1
  Ni  Ni52  1  0.66699038  0.66789246  0.66762925  1
  Ni  Ni53  1  0.83408302  0.83245034  0.83486837  1
" 