5116,Ni90Fe3Cr5_0,-237.723000623108, 175.251413716389,Ni90Fe3Cr5,"# generated using pymatgen
 data_Cr2FeNi24
_symmetry_space_group_name_H-M   'P 1'
_cell_length_a   7.45941949
_cell_length_b   7.45941949
_cell_length_c   10.54921222
_cell_angle_alpha   90.00000000
_cell_angle_beta   90.00000000
_cell_angle_gamma   90.00000000
_symmetry_Int_Tables_number   1
_chemical_formula_structural   Cr2FeNi24
_chemical_formula_sum   'Cr4 Fe2 Ni48'
_cell_volume   586.98917402
_cell_formula_units_Z   2
loop_
 _symmetry_equiv_pos_site_id
 _symmetry_equiv_pos_as_xyz
  1  'x, y, z'
loop_
 _atom_site_type_symbol
 _atom_site_label
 _atom_site_symmetry_multiplicity
 _atom_site_fract_x
 _atom_site_fract_y
 _atom_site_fract_z
 _atom_site_occupancy
  Ni  Ni0  1  0.99934979  0.99929541  0.00208298  1
  Ni  Ni1  1  0.16623343  0.16601398  0.16641293  1
  Fe  Fe2  1  1.00000811  0.99926891  0.33355103  1
  Ni  Ni3  1  0.99947892  0.33492203  0.00225134  1
  Ni  Ni4  1  0.16489245  0.50154335  0.16593003  1
  Fe  Fe5  1  0.99947478  0.33460133  0.33382757  1
  Ni  Ni6  1  1.00031473  0.66727598  1.00009351  1
  Ni  Ni7  1  0.16712184  0.83390559  0.16710310  1
  Ni  Ni8  1  1.00033295  0.66732362  0.33388459  1
  Ni  Ni9  1  0.33471149  0.99969930  0.00183849  1
  Ni  Ni10  1  0.50140054  0.16494626  0.16587921  1
  Ni  Ni11  1  0.33408240  0.99959788  0.33385190  1
  Ni  Ni12  1  0.33381766  0.33381128  0.00073425  1
  Cr  Cr13  1  0.50232201  0.50282759  0.16647590  1
  Cr  Cr14  1  0.33421419  0.33320389  0.33429868  1
  Ni  Ni15  1  0.33258612  0.66803025  1.00036891  1
  Ni  Ni16  1  0.50062258  0.83557440  0.16776998  1
  Ni  Ni17  1  0.33188458  0.66954322  0.33462262  1
  Ni  Ni18  1  0.66746240  0.00054528  1.00046723  1
  Ni  Ni19  1  0.83380133  0.16706891  0.16719801  1
  Ni  Ni20  1  0.66707283  0.00092000  0.33387458  1
  Ni  Ni21  1  0.66813974  0.33285054  1.00001629  1
  Ni  Ni22  1  0.83538708  0.50064829  0.16747859  1
  Ni  Ni23  1  0.66951117  0.33249368  0.33460076  1
  Ni  Ni24  1  0.66863105  0.66817273  1.00024282  1
  Ni  Ni25  1  0.83364026  0.83367800  0.16720883  1
  Ni  Ni26  1  0.66924183  0.66823432  0.33467905  1
  Ni  Ni27  1  0.16705273  0.16689509  0.50048214  1
  Cr  Cr28  1  0.99858444  0.99814660  0.66650396  1
  Cr  Cr29  1  0.16727816  0.16764148  0.83439976  1
  Ni  Ni30  1  0.16626299  0.50157278  0.50165078  1
  Ni  Ni31  1  0.99948057  0.33612477  0.66536286  1
  Ni  Ni32  1  0.16706128  0.50190043  0.83384876  1
  Ni  Ni33  1  0.16795108  0.83309182  0.49982507  1
  Ni  Ni34  1  1.00036282  0.66547400  0.66762588  1
  Ni  Ni35  1  0.16815676  0.83157349  0.83473515  1
  Ni  Ni36  1  0.50140637  0.16619248  0.50170457  1
  Ni  Ni37  1  0.33601926  0.99969707  0.66577015  1
  Ni  Ni38  1  0.50203684  0.16703886  0.83385341  1
  Ni  Ni39  1  0.50161771  0.50170990  0.50118218  1
  Ni  Ni40  1  0.33476424  0.33474181  0.66613159  1
  Ni  Ni41  1  0.50080706  0.50099161  0.83372011  1
  Ni  Ni42  1  0.50067254  0.83371004  0.49989434  1
  Ni  Ni43  1  0.33350946  0.66706858  0.66649984  1
  Ni  Ni44  1  0.50068382  0.83346205  0.83386807  1
  Ni  Ni45  1  0.83296912  0.16790424  0.49974230  1
  Ni  Ni46  1  0.66575329  0.00058779  0.66724289  1
  Ni  Ni47  1  0.83175120  0.16810350  0.83470942  1
  Ni  Ni48  1  0.83364424  0.50071499  0.50019562  1
  Ni  Ni49  1  0.66719718  0.33374350  0.66689001  1
  Ni  Ni50  1  0.83363099  0.50051678  0.83387075  1
  Ni  Ni51  1  0.83282100  0.83290733  0.49972698  1
  Ni  Ni52  1  0.66772353  0.66726220  0.66663485  1
  Ni  Ni53  1  0.83267568  0.83284140  0.83479598  1
" 