4155,Ni90Fe2Cr7_5,-236.716337871646, 171.00422119645,Ni90Fe2Cr7,"# generated using pymatgen
 data_Cr5FeNi48
_symmetry_space_group_name_H-M   'P 1'
_cell_length_a   7.46328557
_cell_length_b   7.46328557
_cell_length_c   10.55467967
_cell_angle_alpha   90.00000000
_cell_angle_beta   90.00000000
_cell_angle_gamma   90.00000000
_symmetry_Int_Tables_number   1
_chemical_formula_structural   Cr5FeNi48
_chemical_formula_sum   'Cr5 Fe1 Ni48'
_cell_volume   587.90232246
_cell_formula_units_Z   1
loop_
 _symmetry_equiv_pos_site_id
 _symmetry_equiv_pos_as_xyz
  1  'x, y, z'
loop_
 _atom_site_type_symbol
 _atom_site_label
 _atom_site_symmetry_multiplicity
 _atom_site_fract_x
 _atom_site_fract_y
 _atom_site_fract_z
 _atom_site_occupancy
  Ni  Ni0  1  0.99772196  0.99943427  0.99917831  1
  Cr  Cr1  1  0.16500430  0.16722958  0.16714532  1
  Ni  Ni2  1  0.99972315  0.99991700  0.33445331  1
  Ni  Ni3  1  0.99909534  0.33512354  0.99916410  1
  Ni  Ni4  1  0.16668703  0.50208039  0.16692923  1
  Ni  Ni5  1  0.99839006  0.33480371  0.33456842  1
  Ni  Ni6  1  0.00054664  0.66617591  0.00079969  1
  Ni  Ni7  1  0.16555696  0.83118587  0.16772102  1
  Ni  Ni8  1  0.00084425  0.66597250  0.33357916  1
  Cr  Cr9  1  0.33373293  0.99739884  0.99967734  1
  Ni  Ni10  1  0.50274298  0.16792263  0.16826704  1
  Ni  Ni11  1  0.33465008  0.99843299  0.33508260  1
  Ni  Ni12  1  0.33342960  0.33730890  0.00092988  1
  Ni  Ni13  1  0.50062271  0.50055701  0.16627581  1
  Fe  Fe14  1  0.33334123  0.33408758  0.33358443  1
  Ni  Ni15  1  0.33340878  0.66509788  1.00021384  1
  Ni  Ni16  1  0.50146357  0.83235581  0.16776611  1
  Ni  Ni17  1  0.33250059  0.66874015  0.33229155  1
  Ni  Ni18  1  0.66921874  0.99951171  0.00189829  1
  Ni  Ni19  1  0.83213086  0.16671214  0.16645964  1
  Ni  Ni20  1  0.66637653  0.00082177  0.33316230  1
  Ni  Ni21  1  0.66829257  0.33477198  0.00109130  1
  Ni  Ni22  1  0.83345860  0.50061125  0.16713523  1
  Ni  Ni23  1  0.66896440  0.33270987  0.33277767  1
  Ni  Ni24  1  0.66680474  0.66646814  1.00013524  1
  Ni  Ni25  1  0.83374999  0.83345015  0.16701959  1
  Ni  Ni26  1  0.66742027  0.66722648  0.33298982  1
  Ni  Ni27  1  0.16660688  0.16659767  0.50089538  1
  Ni  Ni28  1  0.00214676  0.00053854  0.66706034  1
  Ni  Ni29  1  0.16418912  0.16788140  0.83228434  1
  Ni  Ni30  1  0.16530432  0.50055496  0.50003146  1
  Ni  Ni31  1  1.00017819  0.33394853  0.66693373  1
  Ni  Ni32  1  0.16694599  0.50032497  0.83381189  1
  Ni  Ni33  1  0.16653312  0.83360278  0.50026546  1
  Ni  Ni34  1  0.00065476  0.66625758  0.66635682  1
  Ni  Ni35  1  0.16532303  0.83253207  0.83271074  1
  Ni  Ni36  1  0.49930151  0.16642805  0.49892719  1
  Ni  Ni37  1  0.33109388  0.99906424  0.66566100  1
  Cr  Cr38  1  0.50013967  0.16947791  0.83359846  1
  Cr  Cr39  1  0.50095208  0.50105213  0.50117491  1
  Ni  Ni40  1  0.33134715  0.33381250  0.66642594  1
  Ni  Ni41  1  0.50026431  0.50199057  0.83379499  1
  Ni  Ni42  1  0.49942795  0.83395566  0.49966438  1
  Ni  Ni43  1  0.33223923  0.66785517  0.66824395  1
  Ni  Ni44  1  0.50054507  0.82969130  0.83331986  1
  Ni  Ni45  1  0.83479202  0.16759359  0.49941404  1
  Cr  Cr46  1  0.66787434  0.99937548  0.66572443  1
  Ni  Ni47  1  0.83647363  0.16763912  0.83492844  1
  Ni  Ni48  1  0.83509489  0.50061475  0.50048185  1
  Ni  Ni49  1  0.66925097  0.33509011  0.66696593  1
  Ni  Ni50  1  0.83352650  0.50072865  0.83312358  1
  Ni  Ni51  1  0.83477126  0.83255917  0.49912235  1
  Ni  Ni52  1  0.66790643  0.66595064  0.66772289  1
  Ni  Ni53  1  0.83484807  0.83238437  0.83466938  1
" 