6123,Ni90Fe4Cr4_15,-237.783061489082, 176.247262305921,Ni90Fe4Cr4,"# generated using pymatgen
 data_Cr2FeNi24
_symmetry_space_group_name_H-M   'P 1'
_cell_length_a   7.45782398
_cell_length_b   7.45782398
_cell_length_c   10.54695582
_cell_angle_alpha   90.00000000
_cell_angle_beta   90.00000000
_cell_angle_gamma   90.00000000
_symmetry_Int_Tables_number   1
_chemical_formula_structural   Cr2FeNi24
_chemical_formula_sum   'Cr4 Fe2 Ni48'
_cell_volume   586.61259656
_cell_formula_units_Z   2
loop_
 _symmetry_equiv_pos_site_id
 _symmetry_equiv_pos_as_xyz
  1  'x, y, z'
loop_
 _atom_site_type_symbol
 _atom_site_label
 _atom_site_symmetry_multiplicity
 _atom_site_fract_x
 _atom_site_fract_y
 _atom_site_fract_z
 _atom_site_occupancy
  Ni  Ni0  1  0.99881318  0.00086651  0.99994160  1
  Cr  Cr1  1  0.16860901  0.16843722  0.16600075  1
  Cr  Cr2  1  0.99968581  0.99882668  0.33531474  1
  Ni  Ni3  1  0.99960789  0.33499067  1.00027363  1
  Ni  Ni4  1  0.16745735  0.50216558  0.16719703  1
  Fe  Fe5  1  0.99994460  0.33577791  0.33468897  1
  Ni  Ni6  1  0.99988549  0.66609212  0.00174206  1
  Ni  Ni7  1  0.16818882  0.83164729  0.16653538  1
  Ni  Ni8  1  0.00090059  0.66610043  0.33386112  1
  Ni  Ni9  1  0.33591385  0.00091171  0.00112835  1
  Ni  Ni10  1  0.50215383  0.16752987  0.16742746  1
  Ni  Ni11  1  0.33605676  1.00026686  0.33474049  1
  Ni  Ni12  1  0.33520357  0.33492902  0.99900451  1
  Ni  Ni13  1  0.50078454  0.50065227  0.16718122  1
  Ni  Ni14  1  0.33599417  0.33497567  0.33540966  1
  Ni  Ni15  1  0.33483321  0.66589436  0.00179148  1
  Ni  Ni16  1  0.50090572  0.83368560  0.16748635  1
  Ni  Ni17  1  0.33358318  0.66666672  0.33394190  1
  Ni  Ni18  1  0.66709775  0.00124184  0.00082564  1
  Ni  Ni19  1  0.83126488  0.16820412  0.16630661  1
  Ni  Ni20  1  0.66584410  0.00146530  0.33405577  1
  Ni  Ni21  1  0.66695244  0.33387819  0.00085267  1
  Ni  Ni22  1  0.83359607  0.50083147  0.16747008  1
  Ni  Ni23  1  0.66624903  0.33391276  0.33371521  1
  Ni  Ni24  1  0.66712283  0.66671804  1.00017600  1
  Ni  Ni25  1  0.83275545  0.83291506  0.16612649  1
  Ni  Ni26  1  0.66736818  0.66657109  0.33450735  1
  Ni  Ni27  1  0.16825194  0.16811811  0.50211341  1
  Ni  Ni28  1  1.00010862  0.00358449  0.66669247  1
  Ni  Ni29  1  0.16708658  0.16896406  0.83353419  1
  Ni  Ni30  1  0.16811395  0.49976393  0.49956977  1
  Ni  Ni31  1  0.99999662  0.33246830  0.66662033  1
  Ni  Ni32  1  0.16798781  0.49792996  0.83501958  1
  Ni  Ni33  1  0.16926393  0.83401995  0.50020788  1
  Cr  Cr34  1  0.99991389  0.66623788  0.66653317  1
  Cr  Cr35  1  0.16829046  0.83500554  0.83551964  1
  Ni  Ni36  1  0.50089957  0.16723261  0.50017138  1
  Ni  Ni37  1  0.33484851  0.00123793  0.66595438  1
  Ni  Ni38  1  0.50084030  0.16709696  0.83425100  1
  Ni  Ni39  1  0.50102441  0.50082954  0.50087448  1
  Fe  Fe40  1  0.33474060  0.33384603  0.66729462  1
  Ni  Ni41  1  0.50103829  0.50085628  0.83376565  1
  Ni  Ni42  1  0.50082424  0.83378121  0.50049357  1
  Ni  Ni43  1  0.33615558  0.66659979  0.66616735  1
  Ni  Ni44  1  0.50230871  0.83387668  0.83382347  1
  Ni  Ni45  1  0.83277332  0.16835534  0.50138963  1
  Ni  Ni46  1  0.66683965  0.00164155  0.66694537  1
  Ni  Ni47  1  0.83395486  0.16758662  0.83406347  1
  Ni  Ni48  1  0.83274966  0.49972918  0.49956060  1
  Ni  Ni49  1  0.66769702  0.33380682  0.66733404  1
  Ni  Ni50  1  0.83289663  0.49946441  0.83487305  1
  Ni  Ni51  1  0.83175141  0.83393306  0.50112377  1
  Ni  Ni52  1  0.66524535  0.66642427  0.66718080  1
  Ni  Ni53  1  0.83101867  0.83484798  0.83461328  1
" 