5797,Ni90Fe2Cr7_8,-236.620948407023, 171.178681050525,Ni90Fe2Cr7,"# generated using pymatgen
 data_Cr5FeNi48
_symmetry_space_group_name_H-M   'P 1'
_cell_length_a   7.46255112
_cell_length_b   7.46255112
_cell_length_c   10.55364101
_cell_angle_alpha   90.00000000
_cell_angle_beta   90.00000000
_cell_angle_gamma   90.00000000
_symmetry_Int_Tables_number   1
_chemical_formula_structural   Cr5FeNi48
_chemical_formula_sum   'Cr5 Fe1 Ni48'
_cell_volume   587.72877727
_cell_formula_units_Z   1
loop_
 _symmetry_equiv_pos_site_id
 _symmetry_equiv_pos_as_xyz
  1  'x, y, z'
loop_
 _atom_site_type_symbol
 _atom_site_label
 _atom_site_symmetry_multiplicity
 _atom_site_fract_x
 _atom_site_fract_y
 _atom_site_fract_z
 _atom_site_occupancy
  Ni  Ni0  1  0.00162827  0.99850222  1.00025637  1
  Fe  Fe1  1  0.16777481  0.16609677  0.16788985  1
  Ni  Ni2  1  0.00039156  1.00011941  0.33367865  1
  Ni  Ni3  1  0.99986502  0.33535794  0.00043330  1
  Ni  Ni4  1  0.16623807  0.50182552  0.16818692  1
  Ni  Ni5  1  0.00320125  0.33454581  0.33453999  1
  Ni  Ni6  1  0.99963007  0.66704540  0.00034116  1
  Ni  Ni7  1  0.16727987  0.83291887  0.16654011  1
  Ni  Ni8  1  0.99942985  0.66623823  0.33255534  1
  Ni  Ni9  1  0.33379330  0.99899834  1.00025859  1
  Ni  Ni10  1  0.49938536  0.16529557  0.16678891  1
  Ni  Ni11  1  0.33441008  0.00134287  0.33245773  1
  Cr  Cr12  1  0.33401079  0.33337853  0.00034931  1
  Ni  Ni13  1  0.49972230  0.50160729  0.16696662  1
  Ni  Ni14  1  0.33177608  0.33349981  0.33386799  1
  Ni  Ni15  1  0.33370538  0.66863464  0.00034094  1
  Ni  Ni16  1  0.49954634  0.83400051  0.16714605  1
  Ni  Ni17  1  0.33432644  0.66605999  0.33261132  1
  Ni  Ni18  1  0.66548294  0.99876083  0.00051666  1
  Cr  Cr19  1  0.83363238  0.16653748  0.16573878  1
  Ni  Ni20  1  0.66610374  0.99757389  0.33463655  1
  Ni  Ni21  1  0.66707161  0.33527181  1.00014717  1
  Ni  Ni22  1  0.83494474  0.50198299  0.16574722  1
  Cr  Cr23  1  0.66593876  0.33465316  0.33443223  1
  Ni  Ni24  1  0.66756834  0.66687188  0.00054470  1
  Ni  Ni25  1  0.83407817  0.83258479  0.16720366  1
  Ni  Ni26  1  0.66714860  0.66887383  0.33356919  1
  Ni  Ni27  1  0.16650440  0.16891999  0.49961809  1
  Ni  Ni28  1  0.00030484  0.00041594  0.66696808  1
  Ni  Ni29  1  0.16764817  0.16593035  0.83327760  1
  Ni  Ni30  1  0.16685808  0.49825093  0.50008290  1
  Ni  Ni31  1  0.00134539  0.33443856  0.66592763  1
  Ni  Ni32  1  0.16623757  0.50143605  0.83263477  1
  Cr  Cr33  1  0.16732005  0.83308100  0.50050649  1
  Ni  Ni34  1  0.99925450  0.66604850  0.66800927  1
  Ni  Ni35  1  0.16727987  0.83353669  0.83404506  1
  Ni  Ni36  1  0.50010859  0.16629190  0.50112553  1
  Ni  Ni37  1  0.33449468  0.00163755  0.66818754  1
  Ni  Ni38  1  0.49958023  0.16610473  0.83299101  1
  Ni  Ni39  1  0.49951917  0.50065150  0.50089074  1
  Ni  Ni40  1  0.33363012  0.33339487  0.66659740  1
  Ni  Ni41  1  0.50076134  0.50102716  0.83304635  1
  Ni  Ni42  1  0.50215159  0.83396036  0.49984813  1
  Ni  Ni43  1  0.33450111  0.66587061  0.66795352  1
  Ni  Ni44  1  0.49954440  0.83377203  0.83390903  1
  Ni  Ni45  1  0.83429141  0.16629477  0.50112552  1
  Ni  Ni46  1  0.66610415  0.99954614  0.66574929  1
  Cr  Cr47  1  0.83325914  0.16735351  0.83384931  1
  Ni  Ni48  1  0.83452723  0.50029531  0.50089172  1
  Ni  Ni49  1  0.66592761  0.33444430  0.66653254  1
  Ni  Ni50  1  0.83390520  0.50139870  0.83426606  1
  Ni  Ni51  1  0.83189741  0.83431423  0.49984827  1
  Ni  Ni52  1  0.66714873  0.66691345  0.66678941  1
  Ni  Ni53  1  0.83407945  0.83236105  0.83385198  1
" 