5531,Ni90Fe4Cr4_9,-237.765087608006, 176.473018186607,Ni90Fe4Cr4,"# generated using pymatgen
 data_Cr2FeNi24
_symmetry_space_group_name_H-M   'P 1'
_cell_length_a   7.45980877
_cell_length_b   7.45980877
_cell_length_c   10.54976274
_cell_angle_alpha   90.00000000
_cell_angle_beta   90.00000000
_cell_angle_gamma   90.00000000
_symmetry_Int_Tables_number   1
_chemical_formula_structural   Cr2FeNi24
_chemical_formula_sum   'Cr4 Fe2 Ni48'
_cell_volume   587.08107724
_cell_formula_units_Z   2
loop_
 _symmetry_equiv_pos_site_id
 _symmetry_equiv_pos_as_xyz
  1  'x, y, z'
loop_
 _atom_site_type_symbol
 _atom_site_label
 _atom_site_symmetry_multiplicity
 _atom_site_fract_x
 _atom_site_fract_y
 _atom_site_fract_z
 _atom_site_occupancy
  Fe  Fe0  1  0.00057740  0.00120753  0.99971754  1
  Ni  Ni1  1  0.16820488  0.16660547  0.16630056  1
  Ni  Ni2  1  0.00157642  0.99947847  0.33366741  1
  Ni  Ni3  1  0.99946983  0.33432623  0.00059490  1
  Ni  Ni4  1  0.16706645  0.50031966  0.16727728  1
  Cr  Cr5  1  0.99989749  0.33385707  0.33418463  1
  Ni  Ni6  1  1.00000018  0.66524891  1.00015340  1
  Ni  Ni7  1  0.16617745  0.83453063  0.16833046  1
  Ni  Ni8  1  0.00175947  0.66807826  0.33395105  1
  Ni  Ni9  1  0.33358532  0.00222208  0.99996982  1
  Ni  Ni10  1  0.50021388  0.16918951  0.16727480  1
  Ni  Ni11  1  0.33315796  0.00066350  0.33419121  1
  Fe  Fe12  1  0.33429485  0.33253476  0.00059964  1
  Ni  Ni13  1  0.50127069  0.49765212  0.16830638  1
  Ni  Ni14  1  0.33558126  0.33384107  0.33266890  1
  Cr  Cr15  1  0.33289852  0.66763116  0.99970604  1
  Cr  Cr16  1  0.50019817  0.83444001  0.16838257  1
  Ni  Ni17  1  0.33291711  0.66695065  0.33432601  1
  Ni  Ni18  1  0.66625548  0.00275216  0.99891302  1
  Ni  Ni19  1  0.83303662  0.16830040  0.16646172  1
  Ni  Ni20  1  0.66672149  0.00214442  0.33519164  1
  Ni  Ni21  1  0.66861446  0.33324053  0.00120912  1
  Ni  Ni22  1  0.83311936  0.49968049  0.16614108  1
  Ni  Ni23  1  0.66559388  0.33365809  0.33307858  1
  Ni  Ni24  1  0.66895651  0.66546199  0.99891249  1
  Cr  Cr25  1  0.83517550  0.83343244  0.16732211  1
  Ni  Ni26  1  0.66677925  0.66565275  0.33476990  1
  Ni  Ni27  1  0.16796555  0.16622307  0.50118144  1
  Ni  Ni28  1  0.00076056  0.00088536  0.66763459  1
  Ni  Ni29  1  0.16739213  0.16703657  0.83397336  1
  Ni  Ni30  1  0.16796712  0.50141269  0.50118139  1
  Ni  Ni31  1  0.00051967  0.33389892  0.66730245  1
  Ni  Ni32  1  0.16625277  0.49988904  0.83299697  1
  Ni  Ni33  1  0.16690976  0.83381979  0.49976098  1
  Ni  Ni34  1  0.00094356  0.66667141  0.66735099  1
  Ni  Ni35  1  0.16641939  0.83453011  0.83336350  1
  Ni  Ni36  1  0.50054070  0.16709578  0.49994421  1
  Ni  Ni37  1  0.33378402  1.00027842  0.66729470  1
  Ni  Ni38  1  0.50040530  0.16677051  0.83423569  1
  Ni  Ni39  1  0.50054073  0.50054158  0.49994419  1
  Ni  Ni40  1  0.33336015  0.33384093  0.66781787  1
  Ni  Ni41  1  0.50146237  0.50007172  0.83320423  1
  Ni  Ni42  1  0.50072522  0.83381817  0.50037563  1
  Ni  Ni43  1  0.33354309  0.66733603  0.66715999  1
  Ni  Ni44  1  0.50156079  0.83461339  0.83306963  1
  Ni  Ni45  1  0.83294923  0.16603824  0.50099855  1
  Ni  Ni46  1  0.66691099  0.00070237  0.66735097  1
  Ni  Ni47  1  0.83365823  0.16693724  0.83399554  1
  Ni  Ni48  1  0.83294764  0.50159757  0.50099847  1
  Ni  Ni49  1  0.66757575  0.33365800  0.66716790  1
  Ni  Ni50  1  0.83374144  0.50104412  0.83431669  1
  Ni  Ni51  1  0.83382052  0.83381976  0.50013504  1
  Ni  Ni52  1  0.66696891  0.66709522  0.66777338  1
  Ni  Ni53  1  0.83347474  0.83347384  0.83406959  1
" 