6512,Ni90Fe2Cr7_18,-236.657349689179, 171.327711064077,Ni90Fe2Cr7,"# generated using pymatgen
 data_Cr5FeNi48
_symmetry_space_group_name_H-M   'P 1'
_cell_length_a   7.46201981
_cell_length_b   7.46201981
_cell_length_c   10.55288961
_cell_angle_alpha   90.00000000
_cell_angle_beta   90.00000000
_cell_angle_gamma   90.00000000
_symmetry_Int_Tables_number   1
_chemical_formula_structural   Cr5FeNi48
_chemical_formula_sum   'Cr5 Fe1 Ni48'
_cell_volume   587.60325163
_cell_formula_units_Z   1
loop_
 _symmetry_equiv_pos_site_id
 _symmetry_equiv_pos_as_xyz
  1  'x, y, z'
loop_
 _atom_site_type_symbol
 _atom_site_label
 _atom_site_symmetry_multiplicity
 _atom_site_fract_x
 _atom_site_fract_y
 _atom_site_fract_z
 _atom_site_occupancy
  Ni  Ni0  1  0.00212440  1.00033689  0.00035575  1
  Ni  Ni1  1  0.16694888  0.16668532  0.16680059  1
  Ni  Ni2  1  0.00091910  0.00117612  0.33254772  1
  Ni  Ni3  1  1.00029128  0.33362745  0.99978562  1
  Ni  Ni4  1  0.16694367  0.50039097  0.16752771  1
  Ni  Ni5  1  0.99974442  0.33332121  0.33429972  1
  Ni  Ni6  1  0.00066341  0.66704615  0.99978603  1
  Ni  Ni7  1  0.16676176  0.83393360  0.16698637  1
  Ni  Ni8  1  0.00119633  0.66651240  0.33321713  1
  Ni  Ni9  1  0.33169982  1.00014950  0.99978544  1
  Ni  Ni10  1  0.49932717  0.16800746  0.16812647  1
  Ni  Ni11  1  0.33374489  0.99990877  0.33420061  1
  Ni  Ni12  1  0.33371268  0.33399715  0.99978640  1
  Ni  Ni13  1  0.50065732  0.50039358  0.16680081  1
  Ni  Ni14  1  0.33402066  0.33368863  0.33405371  1
  Ni  Ni15  1  0.33352791  0.66686403  0.00035615  1
  Ni  Ni16  1  0.49951814  0.83260974  0.16831169  1
  Ni  Ni17  1  0.33383694  0.66741291  0.33372923  1
  Cr  Cr18  1  0.66740029  0.00073746  1.00006946  1
  Ni  Ni19  1  0.83473465  0.16782650  0.16831258  1
  Ni  Ni20  1  0.66634636  0.00136277  0.33352860  1
  Ni  Ni21  1  0.66700675  0.33545815  0.00035586  1
  Ni  Ni22  1  0.83340924  0.50058113  0.16698621  1
  Ni  Ni23  1  0.66724565  0.33341174  0.33363083  1
  Ni  Ni24  1  0.66681946  0.66503361  0.99978578  1
  Ni  Ni25  1  0.83473115  0.83260350  0.16792767  1
  Ni  Ni26  1  0.66597935  0.66623775  0.33311838  1
  Ni  Ni27  1  0.16822512  0.16755782  0.49998935  1
  Cr  Cr28  1  0.00076222  0.00118548  0.66828337  1
  Ni  Ni29  1  0.16802979  0.16776623  0.83422077  1
  Fe  Fe30  1  0.16637388  0.49904991  0.49954429  1
  Ni  Ni31  1  0.00158214  0.33516349  0.66692239  1
  Ni  Ni32  1  0.16586348  0.49931131  0.83349205  1
  Ni  Ni33  1  0.16879647  0.83433922  0.49866116  1
  Ni  Ni34  1  0.99935978  0.66467135  0.66800579  1
  Ni  Ni35  1  0.16676383  0.83393046  0.83536156  1
  Ni  Ni36  1  0.49865605  0.16652151  0.49999069  1
  Ni  Ni37  1  0.33558416  0.00174284  0.66702364  1
  Ni  Ni38  1  0.49824832  0.16692574  0.83289571  1
  Ni  Ni39  1  0.50087072  0.50019711  0.49866376  1
  Ni  Ni40  1  0.33218282  0.33185281  0.66716895  1
  Ni  Ni41  1  0.50065670  0.50039438  0.83554501  1
  Ni  Ni42  1  0.49916342  0.83429182  0.49998996  1
  Cr  Cr43  1  0.33366487  0.66721877  0.66677839  1
  Ni  Ni44  1  0.50059861  0.83369022  0.83270962  1
  Ni  Ni45  1  0.83412818  0.16925998  0.49866198  1
  Ni  Ni46  1  0.66450622  0.99952531  0.66769648  1
  Ni  Ni47  1  0.83473141  0.16782719  0.83403899  1
  Ni  Ni48  1  0.83408599  0.49962529  0.49999118  1
  Cr  Cr49  1  0.66722310  0.33324407  0.66721471  1
  Ni  Ni50  1  0.83448900  0.50166089  0.83403373  1
  Cr  Cr51  1  0.83287287  0.83232950  0.49993356  1
  Ni  Ni52  1  0.66781309  0.66807209  0.66810669  1
  Ni  Ni53  1  0.83364828  0.83152297  0.83309593  1
" 