1921,Ni90Fe2Cr7_4,-236.584528491813, 169.757019221483,Ni90Fe2Cr7,"# generated using pymatgen
 data_Cr5FeNi48
_symmetry_space_group_name_H-M   'P 1'
_cell_length_a   7.46498418
_cell_length_b   7.46498418
_cell_length_c   10.55708187
_cell_angle_alpha   90.00000000
_cell_angle_beta   90.00000000
_cell_angle_gamma   90.00000000
_symmetry_Int_Tables_number   1
_chemical_formula_structural   Cr5FeNi48
_chemical_formula_sum   'Cr5 Fe1 Ni48'
_cell_volume   588.30382671
_cell_formula_units_Z   1
loop_
 _symmetry_equiv_pos_site_id
 _symmetry_equiv_pos_as_xyz
  1  'x, y, z'
loop_
 _atom_site_type_symbol
 _atom_site_label
 _atom_site_symmetry_multiplicity
 _atom_site_fract_x
 _atom_site_fract_y
 _atom_site_fract_z
 _atom_site_occupancy
  Ni  Ni0  1  0.99939043  0.00062421  0.00035179  1
  Ni  Ni1  1  0.16704653  0.16676172  0.16692810  1
  Ni  Ni2  1  0.00155398  0.00063173  0.33322760  1
  Ni  Ni3  1  0.00187948  0.33175195  0.99862932  1
  Ni  Ni4  1  0.16718493  0.49918892  0.16607754  1
  Ni  Ni5  1  0.00162038  0.33203240  0.33423566  1
  Ni  Ni6  1  0.00197720  0.66808552  0.99917094  1
  Ni  Ni7  1  0.16614705  0.83457392  0.16608734  1
  Ni  Ni8  1  0.00163178  0.66778244  0.33423107  1
  Fe  Fe9  1  0.33314241  0.00072163  0.99956654  1
  Ni  Ni10  1  0.49896600  0.16746970  0.16612140  1
  Ni  Ni11  1  0.33187817  0.00165441  0.33291491  1
  Ni  Ni12  1  0.33320206  0.33452101  0.00029177  1
  Ni  Ni13  1  0.49874448  0.49792376  0.16490307  1
  Ni  Ni14  1  0.33323751  0.33213807  0.33326907  1
  Ni  Ni15  1  0.33335652  0.66565336  0.00020835  1
  Ni  Ni16  1  0.49874052  0.83507679  0.16356611  1
  Cr  Cr17  1  0.33293619  0.66558457  0.33310790  1
  Ni  Ni18  1  0.66776253  0.00048474  0.99987365  1
  Ni  Ni19  1  0.83427166  0.16634766  0.16613254  1
  Cr  Cr20  1  0.66713510  0.00109360  0.33390082  1
  Ni  Ni21  1  0.66522538  0.33187342  0.99950253  1
  Cr  Cr22  1  0.83467298  0.49903625  0.16556396  1
  Ni  Ni23  1  0.66550522  0.33210273  0.33389939  1
  Ni  Ni24  1  0.66508143  0.66804202  0.99943039  1
  Ni  Ni25  1  0.83539089  0.83476393  0.16510420  1
  Cr  Cr26  1  0.66610605  0.66615482  0.33379217  1
  Ni  Ni27  1  0.16822390  0.16744012  0.49918241  1
  Cr  Cr28  1  0.99970464  0.00163042  0.66740317  1
  Ni  Ni29  1  0.16815051  0.16769563  0.83432639  1
  Ni  Ni30  1  0.16573612  0.49910113  0.50092858  1
  Ni  Ni31  1  0.00065292  0.33464334  0.66758110  1
  Ni  Ni32  1  0.16677932  0.50017264  0.83344088  1
  Ni  Ni33  1  0.16724644  0.83391563  0.50003905  1
  Ni  Ni34  1  0.00069305  0.66570018  0.66697184  1
  Ni  Ni35  1  0.16788903  0.83271239  0.83425753  1
  Ni  Ni36  1  0.49871029  0.16746259  0.50107428  1
  Ni  Ni37  1  0.33449071  0.00049483  0.66745000  1
  Ni  Ni38  1  0.49999024  0.16681205  0.83314311  1
  Ni  Ni39  1  0.50028309  0.49786367  0.50188310  1
  Ni  Ni40  1  0.33321505  0.33379369  0.66691527  1
  Ni  Ni41  1  0.50020250  0.49998027  0.83360342  1
  Ni  Ni42  1  0.49864448  0.83483940  0.50345600  1
  Ni  Ni43  1  0.33340963  0.66613370  0.66695231  1
  Ni  Ni44  1  0.49996830  0.83367357  0.83319095  1
  Ni  Ni45  1  0.83348852  0.16905475  0.49987925  1
  Ni  Ni46  1  0.66575276  0.00045846  0.66692892  1
  Ni  Ni47  1  0.83235731  0.16801720  0.83465656  1
  Ni  Ni48  1  0.83445647  0.49907929  0.50107680  1
  Ni  Ni49  1  0.66655199  0.33313371  0.66696214  1
  Ni  Ni50  1  0.83342828  0.50015578  0.83353950  1
  Ni  Ni51  1  0.83464488  0.83229043  0.50095281  1
  Ni  Ni52  1  0.66636473  0.66677618  0.66703487  1
  Ni  Ni53  1  0.83264120  0.83235683  0.83454480  1
" 