3847,Ni90Fe4Cr4_3,-237.745784474889, 175.787001729406,Ni90Fe4Cr4,"# generated using pymatgen
 data_Cr2FeNi24
_symmetry_space_group_name_H-M   'P 1'
_cell_length_a   7.45747154
_cell_length_b   7.45747154
_cell_length_c   10.54645739
_cell_angle_alpha   90.00000000
_cell_angle_beta   90.00000000
_cell_angle_gamma   90.00000000
_symmetry_Int_Tables_number   1
_chemical_formula_structural   Cr2FeNi24
_chemical_formula_sum   'Cr4 Fe2 Ni48'
_cell_volume   586.52943355
_cell_formula_units_Z   2
loop_
 _symmetry_equiv_pos_site_id
 _symmetry_equiv_pos_as_xyz
  1  'x, y, z'
loop_
 _atom_site_type_symbol
 _atom_site_label
 _atom_site_symmetry_multiplicity
 _atom_site_fract_x
 _atom_site_fract_y
 _atom_site_fract_z
 _atom_site_occupancy
  Fe  Fe0  1  0.00081380  0.00151677  1.00062219  1
  Ni  Ni1  1  0.16761638  0.16691001  0.16757987  1
  Ni  Ni2  1  0.00066367  0.00093227  0.33342159  1
  Ni  Ni3  1  1.00060922  0.33463215  0.00092644  1
  Ni  Ni4  1  0.16656136  0.50005404  0.16656633  1
  Ni  Ni5  1  1.00062689  0.33364669  0.33394925  1
  Ni  Ni6  1  0.00212824  0.66652267  1.00063806  1
  Ni  Ni7  1  0.16526472  0.83507792  0.16598593  1
  Ni  Ni8  1  0.99911161  0.66736185  0.33405272  1
  Ni  Ni9  1  0.33364378  0.00192878  0.00169609  1
  Ni  Ni10  1  0.50065288  0.16820137  0.16740193  1
  Ni  Ni11  1  0.33376685  0.00252639  0.33425335  1
  Ni  Ni12  1  0.33317253  0.33321645  1.00059893  1
  Ni  Ni13  1  0.50058884  0.49760770  0.16662605  1
  Ni  Ni14  1  0.33262194  0.33119452  0.33292818  1
  Ni  Ni15  1  0.33079543  0.66679597  0.00130704  1
  Fe  Fe16  1  0.50069978  0.83610453  0.16751795  1
  Cr  Cr17  1  0.33230343  0.66845491  0.33260758  1
  Ni  Ni18  1  0.66769909  0.00331645  0.00139017  1
  Ni  Ni19  1  0.83369829  0.16692065  0.16712645  1
  Ni  Ni20  1  0.66754953  0.00103603  0.33396521  1
  Ni  Ni21  1  0.66805457  0.33170631  1.00032033  1
  Ni  Ni22  1  0.83469050  0.50006670  0.16871890  1
  Ni  Ni23  1  0.66867668  0.33261633  0.33263085  1
  Cr  Cr24  1  0.66910885  0.66628180  0.00173328  1
  Ni  Ni25  1  0.83606891  0.83508765  0.16811394  1
  Ni  Ni26  1  0.67008553  0.66847155  0.33289059  1
  Ni  Ni27  1  0.16699897  0.16689527  0.50005707  1
  Ni  Ni28  1  0.00066858  0.00117023  0.66822736  1
  Ni  Ni29  1  0.16733857  0.16712361  0.83437201  1
  Ni  Ni30  1  0.16494892  0.49972751  0.50120722  1
  Ni  Ni31  1  1.00061852  0.33365769  0.66703410  1
  Ni  Ni32  1  0.16724806  0.50065880  0.83416481  1
  Ni  Ni33  1  0.16582789  0.83526224  0.50183385  1
  Ni  Ni34  1  1.00064065  0.66710075  0.66726863  1
  Ni  Ni35  1  0.16540945  0.83419582  0.83427019  1
  Ni  Ni36  1  0.50074855  0.16590753  0.50079382  1
  Ni  Ni37  1  0.33295639  0.00181409  0.66587488  1
  Ni  Ni38  1  0.50054031  0.16891418  0.83378986  1
  Cr  Cr39  1  0.50183449  0.49887674  0.50228199  1
  Ni  Ni40  1  0.33230813  0.33232045  0.66854115  1
  Ni  Ni41  1  0.49961512  0.49798726  0.83349686  1
  Ni  Ni42  1  0.50163715  0.83627322  0.50067297  1
  Ni  Ni43  1  0.33165779  0.66763051  0.66793971  1
  Cr  Cr44  1  0.49952226  0.83503493  0.83273427  1
  Ni  Ni45  1  0.83415697  0.16693557  0.50026379  1
  Ni  Ni46  1  0.66836195  0.00188025  0.66636709  1
  Ni  Ni47  1  0.83409478  0.16713695  0.83459797  1
  Ni  Ni48  1  0.83542616  0.50066379  0.50006244  1
  Ni  Ni49  1  0.66894386  0.33239982  0.66903572  1
  Ni  Ni50  1  0.83502596  0.49979536  0.83302985  1
  Ni  Ni51  1  0.83452968  0.83437547  0.50073478  1
  Ni  Ni52  1  0.66962864  0.66766982  0.66721615  1
  Ni  Ni53  1  0.83670935  0.83507417  0.83323270  1
" 