5302,Ni90Fe2Cr7_0,-236.646846637097, 169.832914688866,Ni90Fe2Cr7,"# generated using pymatgen
 data_Cr5FeNi48
_symmetry_space_group_name_H-M   'P 1'
_cell_length_a   7.46563607
_cell_length_b   7.46563607
_cell_length_c   10.55800378
_cell_angle_alpha   90.00000000
_cell_angle_beta   90.00000000
_cell_angle_gamma   90.00000000
_symmetry_Int_Tables_number   1
_chemical_formula_structural   Cr5FeNi48
_chemical_formula_sum   'Cr5 Fe1 Ni48'
_cell_volume   588.45796265
_cell_formula_units_Z   1
loop_
 _symmetry_equiv_pos_site_id
 _symmetry_equiv_pos_as_xyz
  1  'x, y, z'
loop_
 _atom_site_type_symbol
 _atom_site_label
 _atom_site_symmetry_multiplicity
 _atom_site_fract_x
 _atom_site_fract_y
 _atom_site_fract_z
 _atom_site_occupancy
  Ni  Ni0  1  1.00009407  0.99982046  0.99985734  1
  Ni  Ni1  1  0.16738085  0.16751890  0.16614317  1
  Cr  Cr2  1  0.00187159  0.99987357  0.33146966  1
  Ni  Ni3  1  1.00009182  0.33292291  0.99961144  1
  Ni  Ni4  1  0.16644136  0.50015200  0.16707879  1
  Ni  Ni5  1  0.00072042  0.33592660  0.33354480  1
  Ni  Ni6  1  1.00009189  0.66754131  0.99985801  1
  Ni  Ni7  1  0.16757799  0.83261268  0.16594974  1
  Ni  Ni8  1  0.00071911  0.66428568  0.33304408  1
  Ni  Ni9  1  0.33181600  0.00120082  0.00073104  1
  Ni  Ni10  1  0.50040722  0.16619131  0.16707935  1
  Ni  Ni11  1  0.33481633  0.00032751  0.33442788  1
  Ni  Ni12  1  0.33358159  0.33330452  0.99985807  1
  Ni  Ni13  1  0.50021521  0.50034793  0.16663100  1
  Ni  Ni14  1  0.33353525  0.33325820  0.33372790  1
  Ni  Ni15  1  0.33219994  0.66577734  0.00073116  1
  Ni  Ni16  1  0.50040725  0.83374443  0.16747939  1
  Ni  Ni17  1  0.33327911  0.66669784  0.33398060  1
  Ni  Ni18  1  0.66837258  0.00120020  0.00073042  1
  Ni  Ni19  1  0.83249490  0.16732775  0.16593490  1
  Ni  Ni20  1  0.66361519  0.00032725  0.33216279  1
  Ni  Ni21  1  0.66661090  0.33330644  0.99985788  1
  Ni  Ni22  1  0.83362652  0.50015192  0.16746444  1
  Ni  Ni23  1  0.66602991  0.33439020  0.33285284  1
  Ni  Ni24  1  0.66799170  0.66577605  0.00073055  1
  Ni  Ni25  1  0.83229792  0.83280389  0.16574165  1
  Ni  Ni26  1  0.66628619  0.66556623  0.33310542  1
  Ni  Ni27  1  0.17070710  0.16848996  0.50004789  1
  Cr  Cr28  1  0.00186760  0.99916846  0.66873386  1
  Ni  Ni29  1  0.16729103  0.16760857  0.83409285  1
  Ni  Ni30  1  0.16671446  0.50026525  0.50004949  1
  Fe  Fe31  1  0.00098390  0.33619041  0.66758634  1
  Ni  Ni32  1  0.16635123  0.50006211  0.83315695  1
  Ni  Ni33  1  0.17080391  0.83153154  0.50033055  1
  Ni  Ni34  1  0.00071835  0.66520461  0.66738057  1
  Ni  Ni35  1  0.16547570  0.83261497  0.83400348  1
  Ni  Ni36  1  0.49807549  0.16612988  0.50033075  1
  Ni  Ni37  1  0.33369729  0.00144722  0.66512578  1
  Ni  Ni38  1  0.50040758  0.16828907  0.83287417  1
  Ni  Ni39  1  0.49980654  0.50036450  0.50032999  1
  Ni  Ni40  1  0.33445453  0.33325832  0.66669798  1
  Ni  Ni41  1  0.50021580  0.49824759  0.83332284  1
  Ni  Ni42  1  0.49807266  0.83378961  0.49995715  1
  Ni  Ni43  1  0.33216000  0.66557911  0.66557313  1
  Cr  Cr44  1  0.50013685  0.83347260  0.83314461  1
  Cr  Cr45  1  0.83166157  0.16994294  0.49973095  1
  Ni  Ni46  1  0.66473655  0.00144769  0.66738875  1
  Ni  Ni47  1  0.83258484  0.16741760  0.83430095  1
  Ni  Ni48  1  0.83376471  0.50026657  0.50005015  1
  Ni  Ni49  1  0.66511254  0.33438909  0.66757224  1
  Ni  Ni50  1  0.83371699  0.50006167  0.83277101  1
  Cr  Cr51  1  0.83121210  0.83025745  0.50010881  1
  Ni  Ni52  1  0.66740548  0.66444802  0.66644806  1
  Ni  Ni53  1  0.83439732  0.83280617  0.83421134  1
" 