7106,Ni90Fe3Cr5_15,-237.803454130349, 176.109638944706,Ni90Fe3Cr5,"# generated using pymatgen
 data_Cr2FeNi24
_symmetry_space_group_name_H-M   'P 1'
_cell_length_a   7.45836561
_cell_length_b   7.45836561
_cell_length_c   10.54772180
_cell_angle_alpha   90.00000000
_cell_angle_beta   90.00000000
_cell_angle_gamma   90.00000000
_symmetry_Int_Tables_number   1
_chemical_formula_structural   Cr2FeNi24
_chemical_formula_sum   'Cr4 Fe2 Ni48'
_cell_volume   586.74041572
_cell_formula_units_Z   2
loop_
 _symmetry_equiv_pos_site_id
 _symmetry_equiv_pos_as_xyz
  1  'x, y, z'
loop_
 _atom_site_type_symbol
 _atom_site_label
 _atom_site_symmetry_multiplicity
 _atom_site_fract_x
 _atom_site_fract_y
 _atom_site_fract_z
 _atom_site_occupancy
  Cr  Cr0  1  0.00187163  0.99958261  1.00009805  1
  Ni  Ni1  1  0.16965357  0.16833676  0.16919650  1
  Fe  Fe2  1  0.00216387  0.99955309  0.33501033  1
  Ni  Ni3  1  0.00188772  0.33630505  0.99953304  1
  Ni  Ni4  1  0.16725619  0.50058800  0.16709991  1
  Ni  Ni5  1  0.00187641  0.33605766  0.33486093  1
  Ni  Ni6  1  1.00057487  0.66544812  1.00039696  1
  Ni  Ni7  1  0.16853235  0.83268944  0.16815295  1
  Ni  Ni8  1  0.00079991  0.66636675  0.33352585  1
  Ni  Ni9  1  0.33448727  0.00167461  0.00173344  1
  Ni  Ni10  1  0.49828771  0.16816742  0.16587371  1
  Ni  Ni11  1  0.33277139  0.00072496  0.33371148  1
  Ni  Ni12  1  0.33359997  0.33389641  0.00076702  1
  Ni  Ni13  1  0.50019245  0.50054642  0.16794248  1
  Ni  Ni14  1  0.33353360  0.33379117  0.33396447  1
  Ni  Ni15  1  0.33291812  0.66609336  0.00163892  1
  Ni  Ni16  1  0.49917775  0.83289893  0.16654423  1
  Ni  Ni17  1  0.33335185  0.66730560  0.33401687  1
  Ni  Ni18  1  0.66582586  1.00036647  1.00033771  1
  Cr  Cr19  1  0.83402293  0.17045911  0.16726865  1
  Cr  Cr20  1  0.66518466  0.99913855  0.33425545  1
  Ni  Ni21  1  0.66616526  0.33519772  0.99989416  1
  Ni  Ni22  1  0.83432305  0.50190272  0.16766319  1
  Ni  Ni23  1  0.66667145  0.33582443  0.33491907  1
  Ni  Ni24  1  0.66818143  0.66620914  0.00210825  1
  Ni  Ni25  1  0.83411032  0.83077636  0.16725204  1
  Ni  Ni26  1  0.66779594  0.66581367  0.33423804  1
  Fe  Fe27  1  0.16761079  0.16802100  0.50078773  1
  Ni  Ni28  1  0.00061258  1.00039121  0.66637644  1
  Ni  Ni29  1  0.16788990  0.16824366  0.83242217  1
  Ni  Ni30  1  0.16719253  0.50140777  0.50074150  1
  Ni  Ni31  1  0.00069440  0.33439213  0.66765321  1
  Ni  Ni32  1  0.16734688  0.50062922  0.83401198  1
  Ni  Ni33  1  0.16759620  0.83305734  0.50068299  1
  Ni  Ni34  1  0.00068957  0.66708696  0.66787464  1
  Ni  Ni35  1  0.16668930  0.83293744  0.83288420  1
  Ni  Ni36  1  0.50059213  0.16809007  0.50156330  1
  Ni  Ni37  1  0.33318237  0.00152838  0.66642216  1
  Ni  Ni38  1  0.50052934  0.16877598  0.83431975  1
  Ni  Ni39  1  0.49992022  0.50025446  0.50040021  1
  Ni  Ni40  1  0.33395520  0.33415959  0.66717909  1
  Ni  Ni41  1  0.50026154  0.49900222  0.83341449  1
  Ni  Ni42  1  0.49910524  0.83340597  0.50156357  1
  Ni  Ni43  1  0.33268154  0.66617035  0.66599349  1
  Cr  Cr44  1  0.49977825  0.83312557  0.83324607  1
  Ni  Ni45  1  0.83418052  0.16852789  0.50155362  1
  Ni  Ni46  1  0.66804516  0.00142620  0.66682442  1
  Ni  Ni47  1  0.83333304  0.16838879  0.83287531  1
  Ni  Ni48  1  0.83465002  0.49986197  0.50020087  1
  Ni  Ni49  1  0.66717328  0.33399541  0.66686691  1
  Ni  Ni50  1  0.83413578  0.50015903  0.83397248  1
  Ni  Ni51  1  0.83525411  0.83327433  0.50154128  1
  Ni  Ni52  1  0.66837817  0.66625585  0.66527961  1
  Ni  Ni53  1  0.83473405  0.83314636  0.83277446  1
" 