1851,Ni90Fe4Cr4_19,-237.769758295902, 175.631314706511,Ni90Fe4Cr4,"# generated using pymatgen
 data_Cr2FeNi24
_symmetry_space_group_name_H-M   'P 1'
_cell_length_a   7.45904740
_cell_length_b   7.45904740
_cell_length_c   10.54868600
_cell_angle_alpha   90.00000000
_cell_angle_beta   90.00000000
_cell_angle_gamma   90.00000000
_symmetry_Int_Tables_number   1
_chemical_formula_structural   Cr2FeNi24
_chemical_formula_sum   'Cr4 Fe2 Ni48'
_cell_volume   586.90133784
_cell_formula_units_Z   2
loop_
 _symmetry_equiv_pos_site_id
 _symmetry_equiv_pos_as_xyz
  1  'x, y, z'
loop_
 _atom_site_type_symbol
 _atom_site_label
 _atom_site_symmetry_multiplicity
 _atom_site_fract_x
 _atom_site_fract_y
 _atom_site_fract_z
 _atom_site_occupancy
  Ni  Ni0  1  1.00027116  0.00096678  1.00030968  1
  Ni  Ni1  1  0.16715055  0.16706220  0.16748754  1
  Ni  Ni2  1  1.00023956  0.00103255  0.33370940  1
  Ni  Ni3  1  0.00145105  0.33273382  0.00192497  1
  Ni  Ni4  1  0.16702095  0.50026628  0.16755606  1
  Ni  Ni5  1  0.00063496  0.33341752  0.33338736  1
  Ni  Ni6  1  0.00140008  0.66804892  0.00077943  1
  Ni  Ni7  1  0.16746919  0.83430312  0.16753232  1
  Ni  Ni8  1  1.00045848  0.66715595  0.33492699  1
  Ni  Ni9  1  0.33300361  0.00222091  0.00130552  1
  Ni  Ni10  1  0.50050498  0.16716578  0.16796805  1
  Ni  Ni11  1  0.33359206  0.00085666  0.33405839  1
  Ni  Ni12  1  0.33377349  0.33344938  1.00033158  1
  Ni  Ni13  1  0.50068051  0.50019166  0.16679040  1
  Ni  Ni14  1  0.33345351  0.33396529  0.33363051  1
  Ni  Ni15  1  0.33265278  0.66585066  0.00123185  1
  Ni  Ni16  1  0.50016311  0.83416913  0.16739633  1
  Ni  Ni17  1  0.33395661  0.66683389  0.33411406  1
  Ni  Ni18  1  0.66829884  0.00193882  0.00153113  1
  Ni  Ni19  1  0.83391727  0.16759835  0.16716481  1
  Ni  Ni20  1  0.66773594  1.00048756  0.33366021  1
  Ni  Ni21  1  0.66621080  0.33235865  0.00067908  1
  Ni  Ni22  1  0.83386988  0.49993640  0.16788049  1
  Ni  Ni23  1  0.66739336  0.33374549  0.33449436  1
  Ni  Ni24  1  0.66752012  0.66699733  0.00274256  1
  Ni  Ni25  1  0.83398830  0.83409751  0.16717009  1
  Ni  Ni26  1  0.66722412  0.66715665  0.33370657  1
  Ni  Ni27  1  0.16644531  0.16721245  0.50013860  1
  Ni  Ni28  1  0.99995533  0.00154624  0.66752381  1
  Ni  Ni29  1  0.16726162  0.16722862  0.83385757  1
  Ni  Ni30  1  0.16667081  0.49895701  0.49968850  1
  Ni  Ni31  1  0.00246675  0.33251644  0.66636212  1
  Ni  Ni32  1  0.16763382  0.49908289  0.83442186  1
  Ni  Ni33  1  0.16689578  0.83550865  0.50008799  1
  Ni  Ni34  1  0.00076766  0.66755953  0.66601768  1
  Ni  Ni35  1  0.16512876  0.83534315  0.83399010  1
  Fe  Fe36  1  0.50016335  0.16695513  0.49966460  1
  Ni  Ni37  1  0.33334885  0.00364003  0.66610401  1
  Ni  Ni38  1  0.50035501  0.16838846  0.83265854  1
  Ni  Ni39  1  0.50039741  0.49931981  0.49888012  1
  Ni  Ni40  1  0.33315922  0.33203073  0.66724706  1
  Ni  Ni41  1  0.49891153  0.49705227  0.83594411  1
  Ni  Ni42  1  0.50035191  0.83504273  0.49814891  1
  Cr  Cr43  1  0.33183106  0.66585378  0.66686845  1
  Cr  Cr44  1  0.50022483  0.83562176  0.83701763  1
  Ni  Ni45  1  0.83482384  0.16725020  0.50064090  1
  Ni  Ni46  1  0.66820556  0.00275117  0.66626436  1
  Ni  Ni47  1  0.83417346  0.16581363  0.83373805  1
  Ni  Ni48  1  0.83466047  0.49902215  0.49937188  1
  Fe  Fe49  1  0.66728272  0.33188497  0.66628019  1
  Cr  Cr50  1  0.83493847  0.49932969  0.83474452  1
  Ni  Ni51  1  0.83441371  0.83526632  0.49987026  1
  Cr  Cr52  1  0.66838208  0.66840436  0.66553341  1
  Ni  Ni53  1  0.83607423  0.83636942  0.83442391  1
" 