731,Ni90Fe2Cr7_12,-236.675676566087, 171.435880124545,Ni90Fe2Cr7,"# generated using pymatgen
 data_Cr5FeNi48
_symmetry_space_group_name_H-M   'P 1'
_cell_length_a   7.46175103
_cell_length_b   7.46175103
_cell_length_c   10.55250950
_cell_angle_alpha   90.00000000
_cell_angle_beta   90.00000000
_cell_angle_gamma   90.00000000
_symmetry_Int_Tables_number   1
_chemical_formula_structural   Cr5FeNi48
_chemical_formula_sum   'Cr5 Fe1 Ni48'
_cell_volume   587.53975824
_cell_formula_units_Z   1
loop_
 _symmetry_equiv_pos_site_id
 _symmetry_equiv_pos_as_xyz
  1  'x, y, z'
loop_
 _atom_site_type_symbol
 _atom_site_label
 _atom_site_symmetry_multiplicity
 _atom_site_fract_x
 _atom_site_fract_y
 _atom_site_fract_z
 _atom_site_occupancy
  Ni  Ni0  1  1.00016522  1.00020786  1.00004676  1
  Ni  Ni1  1  0.16770668  0.16700707  0.16704075  1
  Ni  Ni2  1  0.99952733  0.00107683  0.33334416  1
  Ni  Ni3  1  1.00016993  0.33381883  1.00007673  1
  Ni  Ni4  1  0.16623040  0.49971536  0.16815676  1
  Ni  Ni5  1  0.00059141  0.33379029  0.33440605  1
  Ni  Ni6  1  0.99837207  0.66703780  1.00027155  1
  Ni  Ni7  1  0.16646958  0.83434252  0.16754132  1
  Ni  Ni8  1  0.99952895  0.66619885  0.33272758  1
  Ni  Ni9  1  0.33367190  0.00199465  1.00025890  1
  Ni  Ni10  1  0.50007035  0.16694663  0.16672115  1
  Ni  Ni11  1  0.33368601  1.00001278  0.33191762  1
  Ni  Ni12  1  0.33357862  0.33194037  1.00034192  1
  Ni  Ni13  1  0.50112602  0.49935413  0.16768175  1
  Ni  Ni14  1  0.33263256  0.33486047  0.33298186  1
  Cr  Cr15  1  0.33352145  0.66719287  1.00009012  1
  Ni  Ni16  1  0.50094539  0.83476246  0.16833989  1
  Ni  Ni17  1  0.33475659  0.66619015  0.33372274  1
  Ni  Ni18  1  0.66722752  1.00019711  1.00007703  1
  Ni  Ni19  1  0.83328797  0.16718773  0.16709813  1
  Ni  Ni20  1  0.66784984  0.99895133  0.33334651  1
  Ni  Ni21  1  0.66731620  0.33373423  1.00016020  1
  Ni  Ni22  1  0.83370909  0.50059074  0.16691584  1
  Ni  Ni23  1  0.66784033  0.33485928  0.33310746  1
  Ni  Ni24  1  0.66910747  0.66713188  0.00035535  1
  Ni  Ni25  1  0.83364873  0.83328636  0.16685808  1
  Ni  Ni26  1  0.66677948  0.66725300  0.33402962  1
  Ni  Ni27  1  0.16525687  0.16900129  0.50081562  1
  Ni  Ni28  1  0.99971835  0.00325929  0.66767328  1
  Ni  Ni29  1  0.16770806  0.16724023  0.83320912  1
  Ni  Ni30  1  0.16769376  0.49814664  0.49975310  1
  Ni  Ni31  1  0.00078142  0.33159563  0.66658192  1
  Ni  Ni32  1  0.16642804  0.49912138  0.83315307  1
  Cr  Cr33  1  0.16804429  0.83419032  0.49989622  1
  Cr  Cr34  1  0.00104344  0.66638825  0.66786898  1
  Ni  Ni35  1  0.16753132  0.83470283  0.83353048  1
  Cr  Cr36  1  0.50053301  0.16678016  0.50035994  1
  Ni  Ni37  1  0.33367306  0.00039243  0.66888547  1
  Ni  Ni38  1  0.50030126  0.16631724  0.83376864  1
  Ni  Ni39  1  0.49966485  0.50137804  0.50023061  1
  Ni  Ni40  1  0.33252831  0.33437290  0.66774334  1
  Fe  Fe41  1  0.50036177  0.49856917  0.83359003  1
  Ni  Ni42  1  0.50128718  0.83254297  0.49975482  1
  Ni  Ni43  1  0.33465127  0.66629589  0.66736941  1
  Ni  Ni44  1  0.50011961  0.83598930  0.83296921  1
  Ni  Ni45  1  0.83508116  0.16737777  0.50105522  1
  Ni  Ni46  1  0.66767192  0.00113032  0.66764026  1
  Ni  Ni47  1  0.83305553  0.16742062  0.83291141  1
  Ni  Ni48  1  0.83370581  0.49870155  0.49868879  1
  Ni  Ni49  1  0.66775523  0.33257205  0.66779989  1
  Ni  Ni50  1  0.83433991  0.49893580  0.83545780  1
  Ni  Ni51  1  0.83184625  0.83498744  0.49892620  1
  Cr  Cr52  1  0.66545331  0.66740568  0.66663872  1
  Ni  Ni53  1  0.83341336  0.83470864  0.83527804  1
" 