8488,Ni90Fe3Cr5_10,-237.760697639918, 177.010374794644,Ni90Fe3Cr5,"# generated using pymatgen
 data_Cr2FeNi24
_symmetry_space_group_name_H-M   'P 1'
_cell_length_a   7.45681289
_cell_length_b   7.45681289
_cell_length_c   10.54552593
_cell_angle_alpha   90.00000000
_cell_angle_beta   90.00000000
_cell_angle_gamma   90.00000000
_symmetry_Int_Tables_number   1
_chemical_formula_structural   Cr2FeNi24
_chemical_formula_sum   'Cr4 Fe2 Ni48'
_cell_volume   586.37404076
_cell_formula_units_Z   2
loop_
 _symmetry_equiv_pos_site_id
 _symmetry_equiv_pos_as_xyz
  1  'x, y, z'
loop_
 _atom_site_type_symbol
 _atom_site_label
 _atom_site_symmetry_multiplicity
 _atom_site_fract_x
 _atom_site_fract_y
 _atom_site_fract_z
 _atom_site_occupancy
  Ni  Ni0  1  0.00089642  1.00068286  0.00093827  1
  Ni  Ni1  1  0.16817653  0.16652980  0.16652935  1
  Cr  Cr2  1  0.00072152  0.00084761  0.33369043  1
  Ni  Ni3  1  0.99981671  0.33292649  0.99977980  1
  Cr  Cr4  1  0.16734898  0.50048625  0.16690332  1
  Ni  Ni5  1  0.99989600  0.33467079  0.33499741  1
  Ni  Ni6  1  0.99982201  0.66844930  0.99978038  1
  Ni  Ni7  1  0.16817641  0.83486418  0.16697501  1
  Ni  Ni8  1  0.99982404  0.66660740  0.33492856  1
  Ni  Ni9  1  0.33358424  1.00068282  0.00070958  1
  Ni  Ni10  1  0.50039696  0.16722341  0.16735244  1
  Ni  Ni11  1  0.33530873  0.00077990  0.33392819  1
  Ni  Ni12  1  0.33401538  0.33227524  0.00078068  1
  Ni  Ni13  1  0.50214633  0.50089380  0.16770891  1
  Ni  Ni14  1  0.33488518  0.33332470  0.33482031  1
  Ni  Ni15  1  0.33401018  0.66910051  0.00078117  1
  Ni  Ni16  1  0.50062873  0.83394158  0.16712175  1
  Ni  Ni17  1  0.33495667  0.66795400  0.33475204  1
  Ni  Ni18  1  0.66757799  0.00068765  1.00045088  1
  Ni  Ni19  1  0.83348533  0.16805076  0.16652891  1
  Ni  Ni20  1  0.66593298  0.00070670  0.33422580  1
  Ni  Ni21  1  0.66822605  0.33335164  0.00170865  1
  Ni  Ni22  1  0.83256235  0.50089371  0.16758260  1
  Ni  Ni23  1  0.66727762  0.33432070  0.33385100  1
  Ni  Ni24  1  0.66822594  0.66801939  0.00170846  1
  Ni  Ni25  1  0.83325497  0.83311470  0.16629971  1
  Ni  Ni26  1  0.66727897  0.66703126  0.33382098  1
  Ni  Ni27  1  0.16895081  0.16975998  0.50048811  1
  Cr  Cr28  1  1.00033002  0.00084850  0.66727914  1
  Ni  Ni29  1  0.16799864  0.16764183  0.83503962  1
  Ni  Ni30  1  0.16712467  0.50008312  0.50146580  1
  Ni  Ni31  1  1.00057122  0.33556859  0.66728207  1
  Fe  Fe32  1  0.16563830  0.50072985  0.83362303  1
  Fe  Fe33  1  0.16902298  0.83225283  0.50067347  1
  Ni  Ni34  1  1.00049737  0.66570812  0.66735167  1
  Ni  Ni35  1  0.16799850  0.83375482  0.83459382  1
  Ni  Ni36  1  0.50000640  0.16696197  0.50107129  1
  Ni  Ni37  1  0.33577607  0.00078066  0.66742263  1
  Ni  Ni38  1  0.50000621  0.16574309  0.83363509  1
  Ni  Ni39  1  0.50006355  0.50110673  0.50030965  1
  Ni  Ni40  1  0.33343815  0.33322529  0.66645813  1
  Cr  Cr41  1  0.50097087  0.50083695  0.83407277  1
  Ni  Ni42  1  0.50103140  0.83398928  0.50107126  1
  Ni  Ni43  1  0.33351104  0.66805293  0.66652671  1
  Ni  Ni44  1  0.50023808  0.83542129  0.83386587  1
  Ni  Ni45  1  0.83310137  0.16878832  0.50089502  1
  Ni  Ni46  1  0.66570861  0.00070665  0.66738233  1
  Ni  Ni47  1  0.83405195  0.16826316  0.83463399  1
  Ni  Ni48  1  0.83487057  0.50110754  0.50066412  1
  Ni  Ni49  1  0.66804933  0.33330349  0.66649914  1
  Ni  Ni50  1  0.83572385  0.50089371  0.83381128  1
  Ni  Ni51  1  0.83207382  0.83216240  0.50089483  1
  Ni  Ni52  1  0.66804989  0.66804799  0.66652960  1
  Ni  Ni53  1  0.83382147  0.83290212  0.83486335  1
" 