5282,Ni90Fe4Cr4_11,-237.688854253508, 175.586124180508,Ni90Fe4Cr4,"# generated using pymatgen
 data_Cr2FeNi24
_symmetry_space_group_name_H-M   'P 1'
_cell_length_a   7.45632945
_cell_length_b   7.45632945
_cell_length_c   10.54484223
_cell_angle_alpha   90.00000000
_cell_angle_beta   90.00000000
_cell_angle_gamma   90.00000000
_symmetry_Int_Tables_number   1
_chemical_formula_structural   Cr2FeNi24
_chemical_formula_sum   'Cr4 Fe2 Ni48'
_cell_volume   586.25999939
_cell_formula_units_Z   2
loop_
 _symmetry_equiv_pos_site_id
 _symmetry_equiv_pos_as_xyz
  1  'x, y, z'
loop_
 _atom_site_type_symbol
 _atom_site_label
 _atom_site_symmetry_multiplicity
 _atom_site_fract_x
 _atom_site_fract_y
 _atom_site_fract_z
 _atom_site_occupancy
  Cr  Cr0  1  0.00233177  0.00186287  0.00219474  1
  Ni  Ni1  1  0.16858026  0.16904242  0.16850367  1
  Ni  Ni2  1  0.00109460  0.00079577  0.33476637  1
  Ni  Ni3  1  0.99954686  0.33413094  0.00152069  1
  Ni  Ni4  1  0.16735089  0.50067464  0.16741005  1
  Ni  Ni5  1  1.00035402  0.33419295  0.33393189  1
  Ni  Ni6  1  1.00071335  0.66630118  0.00293101  1
  Ni  Ni7  1  0.16834155  0.83232484  0.16794976  1
  Ni  Ni8  1  1.00056115  0.66717533  0.33373722  1
  Ni  Ni9  1  0.33540592  1.00062027  1.00006213  1
  Ni  Ni10  1  0.50093094  0.16759128  0.16692522  1
  Ni  Ni11  1  0.33284377  0.99959783  0.33272840  1
  Ni  Ni12  1  0.33517875  0.33351580  0.00176245  1
  Ni  Ni13  1  0.50049092  0.50055406  0.16837355  1
  Ni  Ni14  1  0.33315411  0.33502588  0.33315239  1
  Ni  Ni15  1  0.33552729  0.66805631  0.00165728  1
  Ni  Ni16  1  0.50109268  0.83407031  0.16702041  1
  Ni  Ni17  1  0.33431711  0.66762585  0.33440467  1
  Ni  Ni18  1  0.66541308  0.00151913  0.00176968  1
  Ni  Ni19  1  0.83260892  0.16844523  0.16891809  1
  Ni  Ni20  1  0.66817327  0.99978257  0.33276090  1
  Ni  Ni21  1  0.66701826  0.33453937  1.00033311  1
  Ni  Ni22  1  0.83425435  0.50085908  0.16599961  1
  Ni  Ni23  1  0.66870934  0.33555535  0.33311862  1
  Ni  Ni24  1  0.66569527  0.66594644  0.00152025  1
  Ni  Ni25  1  0.83278985  0.83279289  0.16892634  1
  Ni  Ni26  1  0.66736327  0.66690271  0.33435949  1
  Ni  Ni27  1  0.16656520  0.16841417  0.50104207  1
  Ni  Ni28  1  0.00167474  0.00159044  0.66582437  1
  Ni  Ni29  1  0.16817640  0.16812718  0.83265489  1
  Ni  Ni30  1  0.16661316  0.50071886  0.50027033  1
  Ni  Ni31  1  0.99986475  0.33310357  0.66677725  1
  Cr  Cr32  1  0.16704909  0.50154599  0.83517820  1
  Ni  Ni33  1  0.16761407  0.83311579  0.50135135  1
  Ni  Ni34  1  0.00089706  0.66746329  0.66569308  1
  Ni  Ni35  1  0.16940197  0.83369156  0.83296698  1
  Cr  Cr36  1  0.50090228  0.16639235  0.49982631  1
  Ni  Ni37  1  0.33317430  0.99987354  0.66912465  1
  Ni  Ni38  1  0.50119198  0.16786346  0.83444112  1
  Fe  Fe39  1  0.50075783  0.50141551  0.50033528  1
  Ni  Ni40  1  0.33409617  0.33432563  0.66709887  1
  Ni  Ni41  1  0.50091463  0.50056873  0.83309711  1
  Ni  Ni42  1  0.50109114  0.83329711  0.50106400  1
  Ni  Ni43  1  0.33509694  0.66811167  0.66623163  1
  Ni  Ni44  1  0.50016432  0.83368512  0.83408991  1
  Ni  Ni45  1  0.83460955  0.16780683  0.50065235  1
  Ni  Ni46  1  0.66731161  1.00070349  0.66748762  1
  Ni  Ni47  1  0.83271339  0.16895332  0.83267438  1
  Ni  Ni48  1  0.83522768  0.50091787  0.50179780  1
  Ni  Ni49  1  0.66813525  0.33505503  0.66836361  1
  Fe  Fe50  1  0.83267291  0.49970698  0.83414833  1
  Ni  Ni51  1  0.83344270  0.83352397  0.50031896  1
  Ni  Ni52  1  0.66610461  0.66635957  0.66625664  1
  Cr  Cr53  1  0.83350606  0.83297903  0.83330631  1
" 