1829,Ni90Fe4Cr4_8,-237.820207703734, 176.378953836567,Ni90Fe4Cr4,"# generated using pymatgen
 data_Cr2FeNi24
_symmetry_space_group_name_H-M   'P 1'
_cell_length_a   7.45845718
_cell_length_b   7.45845718
_cell_length_c   10.54785130
_cell_angle_alpha   90.00000000
_cell_angle_beta   90.00000000
_cell_angle_gamma   90.00000000
_symmetry_Int_Tables_number   1
_chemical_formula_structural   Cr2FeNi24
_chemical_formula_sum   'Cr4 Fe2 Ni48'
_cell_volume   586.76202732
_cell_formula_units_Z   2
loop_
 _symmetry_equiv_pos_site_id
 _symmetry_equiv_pos_as_xyz
  1  'x, y, z'
loop_
 _atom_site_type_symbol
 _atom_site_label
 _atom_site_symmetry_multiplicity
 _atom_site_fract_x
 _atom_site_fract_y
 _atom_site_fract_z
 _atom_site_occupancy
  Ni  Ni0  1  0.00126889  0.99933856  0.99943569  1
  Cr  Cr1  1  0.16688108  0.16807488  0.16738968  1
  Ni  Ni2  1  0.99949497  0.99916877  0.33477909  1
  Ni  Ni3  1  0.99983836  0.33524997  0.99932735  1
  Ni  Ni4  1  0.16523088  0.50113119  0.16825755  1
  Ni  Ni5  1  0.99974099  0.33532856  0.33540782  1
  Ni  Ni6  1  0.99922023  0.66712095  1.00052850  1
  Ni  Ni7  1  0.16677914  0.83276975  0.16787179  1
  Ni  Ni8  1  0.00076469  0.66723948  0.33357018  1
  Ni  Ni9  1  0.33229577  0.00222654  1.00053535  1
  Ni  Ni10  1  0.50108303  0.16754083  0.16779260  1
  Ni  Ni11  1  0.33494497  0.99964831  0.33443714  1
  Ni  Ni12  1  0.33475712  0.33337599  0.99959548  1
  Fe  Fe13  1  0.50164376  0.49984053  0.16836947  1
  Ni  Ni14  1  0.33486485  0.33492784  0.33465191  1
  Cr  Cr15  1  0.33260870  0.66625680  0.00121597  1
  Ni  Ni16  1  0.50067741  0.83444762  0.16942974  1
  Ni  Ni17  1  0.33351873  0.66717620  0.33475942  1
  Cr  Cr18  1  0.66859020  0.00157774  0.00113779  1
  Ni  Ni19  1  0.83286191  0.16901894  0.16825145  1
  Ni  Ni20  1  0.66721288  1.00055413  0.33441883  1
  Ni  Ni21  1  0.66710829  0.33554912  1.00031141  1
  Ni  Ni22  1  0.83465639  0.50048637  0.16692422  1
  Ni  Ni23  1  0.66712825  0.33380020  0.33394312  1
  Ni  Ni24  1  0.67001295  0.66447819  0.00148020  1
  Ni  Ni25  1  0.83431121  0.83216919  0.16781837  1
  Ni  Ni26  1  0.66747329  0.66733183  0.33356493  1
  Ni  Ni27  1  0.16744589  0.16747728  0.50035403  1
  Ni  Ni28  1  0.00093099  1.00013058  0.66758557  1
  Ni  Ni29  1  0.16734679  0.16760294  0.83440679  1
  Ni  Ni30  1  0.16682941  0.50025474  0.50030962  1
  Ni  Ni31  1  0.00109267  0.33432080  0.66710013  1
  Ni  Ni32  1  0.16589862  0.49927496  0.83314918  1
  Ni  Ni33  1  0.16737191  0.83394014  0.50022811  1
  Ni  Ni34  1  1.00006981  0.66725784  0.66758932  1
  Ni  Ni35  1  0.16471841  0.83488831  0.83369960  1
  Ni  Ni36  1  0.50042458  0.16714135  0.50057173  1
  Ni  Ni37  1  0.33261340  0.00258527  0.66665419  1
  Ni  Ni38  1  0.49943829  0.16979646  0.83335285  1
  Ni  Ni39  1  0.50107421  0.50063574  0.50010137  1
  Ni  Ni40  1  0.33395157  0.33340180  0.66758575  1
  Ni  Ni41  1  0.50200909  0.49790928  0.83387501  1
  Ni  Ni42  1  0.50086821  0.83391051  0.50040750  1
  Fe  Fe43  1  0.33256641  0.66584461  0.66565254  1
  Cr  Cr44  1  0.50128620  0.83382066  0.83106070  1
  Ni  Ni45  1  0.83385284  0.16772139  0.50028314  1
  Ni  Ni46  1  0.66813643  0.00150585  0.66596668  1
  Ni  Ni47  1  0.83493789  0.16879730  0.83312222  1
  Ni  Ni48  1  0.83380921  0.50071075  0.50053603  1
  Ni  Ni49  1  0.66665736  0.33427330  0.66758900  1
  Ni  Ni50  1  0.83392328  0.50062355  0.83421471  1
  Ni  Ni51  1  0.83345940  0.83329250  0.50043246  1
  Ni  Ni52  1  0.66916305  0.66587944  0.66660512  1
  Ni  Ni53  1  0.83625293  0.83227194  0.83345940  1
" 