4003,Ni90Fe2Cr7_3,-236.586156093532, 168.515989479255,Ni90Fe2Cr7,"# generated using pymatgen
 data_Cr5FeNi48
_symmetry_space_group_name_H-M   'P 1'
_cell_length_a   7.46478008
_cell_length_b   7.46478008
_cell_length_c   10.55679323
_cell_angle_alpha   90.00000000
_cell_angle_beta   90.00000000
_cell_angle_gamma   90.00000000
_symmetry_Int_Tables_number   1
_chemical_formula_structural   Cr5FeNi48
_chemical_formula_sum   'Cr5 Fe1 Ni48'
_cell_volume   588.25557276
_cell_formula_units_Z   1
loop_
 _symmetry_equiv_pos_site_id
 _symmetry_equiv_pos_as_xyz
  1  'x, y, z'
loop_
 _atom_site_type_symbol
 _atom_site_label
 _atom_site_symmetry_multiplicity
 _atom_site_fract_x
 _atom_site_fract_y
 _atom_site_fract_z
 _atom_site_occupancy
  Ni  Ni0  1  0.00042170  0.00201191  0.99997542  1
  Ni  Ni1  1  0.16676790  0.16528915  0.16652018  1
  Ni  Ni2  1  0.00041242  0.00044103  0.33350420  1
  Ni  Ni3  1  0.99886166  0.33101859  0.99933263  1
  Cr  Cr4  1  0.16574070  0.49751205  0.16887603  1
  Ni  Ni5  1  0.99891340  0.33237430  0.33415597  1
  Cr  Cr6  1  0.99868150  0.66817501  0.99955229  1
  Ni  Ni7  1  0.16647382  0.83738244  0.16879202  1
  Ni  Ni8  1  0.99951925  0.66769481  0.33446873  1
  Ni  Ni9  1  0.33349673  0.00182861  0.00051799  1
  Ni  Ni10  1  0.50014242  0.16520900  0.16673813  1
  Ni  Ni11  1  0.33348800  0.00016686  0.33299046  1
  Ni  Ni12  1  0.33367539  0.32985609  0.99754170  1
  Cr  Cr13  1  0.50212288  0.49900311  0.16758039  1
  Ni  Ni14  1  0.33362101  0.33121703  0.33594012  1
  Cr  Cr15  1  0.33420477  0.67006125  0.99890037  1
  Ni  Ni16  1  0.50169085  0.83609890  0.16757171  1
  Ni  Ni17  1  0.33335764  0.66912570  0.33524784  1
  Ni  Ni18  1  0.66655541  0.00071561  0.99976942  1
  Ni  Ni19  1  0.83353645  0.16632477  0.16674021  1
  Ni  Ni20  1  0.66656141  0.00073304  0.33393900  1
  Ni  Ni21  1  0.66785638  0.33220412  0.99973062  1
  Ni  Ni22  1  0.83257757  0.49937095  0.16748900  1
  Ni  Ni23  1  0.66782088  0.33225437  0.33397083  1
  Ni  Ni24  1  0.66750308  0.66753081  0.99902310  1
  Ni  Ni25  1  0.83230052  0.83480294  0.16753268  1
  Ni  Ni26  1  0.66757578  0.66752672  0.33428118  1
  Ni  Ni27  1  0.16651903  0.16657980  0.50007775  1
  Ni  Ni28  1  0.00077079  0.00068178  0.66695724  1
  Ni  Ni29  1  0.16658921  0.16655557  0.83376780  1
  Ni  Ni30  1  0.16670852  0.50014644  0.50031583  1
  Ni  Ni31  1  0.00076717  0.33342510  0.66696171  1
  Ni  Ni32  1  0.16678517  0.49815891  0.83152383  1
  Ni  Ni33  1  0.16663483  0.83372424  0.49986415  1
  Ni  Ni34  1  0.00077136  0.66637678  0.66678609  1
  Ni  Ni35  1  0.16664919  0.83568758  0.83202629  1
  Ni  Ni36  1  0.49928441  0.16537558  0.49896180  1
  Ni  Ni37  1  0.33349083  0.99933089  0.66698592  1
  Ni  Ni38  1  0.49943969  0.16550686  0.83457430  1
  Ni  Ni39  1  0.49928210  0.50142316  0.49920431  1
  Fe  Fe40  1  0.33260117  0.33293980  0.66656707  1
  Ni  Ni41  1  0.50021678  0.50024919  0.83360290  1
  Ni  Ni42  1  0.50038355  0.83357527  0.50009772  1
  Ni  Ni43  1  0.33332680  0.66769835  0.66677968  1
  Ni  Ni44  1  0.50129618  0.83457482  0.83293276  1
  Ni  Ni45  1  0.83459415  0.16537582  0.49926566  1
  Ni  Ni46  1  0.66613279  0.99949555  0.66672098  1
  Ni  Ni47  1  0.83435415  0.16548017  0.83435874  1
  Ni  Ni48  1  0.83438740  0.50128285  0.49882164  1
  Cr  Cr49  1  0.66768653  0.33257336  0.66607085  1
  Ni  Ni50  1  0.83340021  0.50018144  0.83404921  1
  Ni  Ni51  1  0.83342972  0.83371727  0.50064323  1
  Ni  Ni52  1  0.66629416  0.66743889  0.66719730  1
  Ni  Ni53  1  0.83252621  0.83471698  0.83240462  1
" 