2441,Ni90Fe2Cr7_11,-236.613544364922, 168.965965911159,Ni90Fe2Cr7,"# generated using pymatgen
 data_Cr5FeNi48
_symmetry_space_group_name_H-M   'P 1'
_cell_length_a   7.46350020
_cell_length_b   7.46350020
_cell_length_c   10.55498320
_cell_angle_alpha   90.00000000
_cell_angle_beta   90.00000000
_cell_angle_gamma   90.00000000
_symmetry_Int_Tables_number   1
_chemical_formula_structural   Cr5FeNi48
_chemical_formula_sum   'Cr5 Fe1 Ni48'
_cell_volume   587.95304475
_cell_formula_units_Z   1
loop_
 _symmetry_equiv_pos_site_id
 _symmetry_equiv_pos_as_xyz
  1  'x, y, z'
loop_
 _atom_site_type_symbol
 _atom_site_label
 _atom_site_symmetry_multiplicity
 _atom_site_fract_x
 _atom_site_fract_y
 _atom_site_fract_z
 _atom_site_occupancy
  Ni  Ni0  1  0.00073153  0.00044485  0.00040293  1
  Ni  Ni1  1  0.16774210  0.16584108  0.16604863  1
  Ni  Ni2  1  0.99997064  0.99883408  0.33375235  1
  Ni  Ni3  1  0.99932245  0.33281087  0.99996475  1
  Ni  Ni4  1  0.16560263  0.49893372  0.16586971  1
  Cr  Cr5  1  0.99960692  0.33297752  0.33387197  1
  Ni  Ni6  1  0.99809049  0.66744901  0.00067564  1
  Ni  Ni7  1  0.16457945  0.83591006  0.16732520  1
  Ni  Ni8  1  0.99809244  0.66881635  0.33341227  1
  Ni  Ni9  1  0.33308410  0.00172998  0.00042996  1
  Ni  Ni10  1  0.49999013  0.16708398  0.16755688  1
  Ni  Ni11  1  0.33266859  0.00280212  0.33267361  1
  Ni  Ni12  1  0.33425376  0.33140344  0.00066237  1
  Ni  Ni13  1  0.50242862  0.49806234  0.16709898  1
  Ni  Ni14  1  0.33453995  0.33041481  0.33229251  1
  Cr  Cr15  1  0.33445399  0.66777229  0.99986332  1
  Ni  Ni16  1  0.50234284  0.83568361  0.16679365  1
  Cr  Cr17  1  0.33126206  0.66703507  0.33112838  1
  Fe  Fe18  1  0.66721058  0.00068628  0.99996898  1
  Ni  Ni19  1  0.83293030  0.16594002  0.16597814  1
  Ni  Ni20  1  0.66807415  0.00151569  0.33219424  1
  Ni  Ni21  1  0.66711892  0.33406083  0.00041271  1
  Ni  Ni22  1  0.83268394  0.50121960  0.16628142  1
  Ni  Ni23  1  0.66655915  0.33223014  0.33292061  1
  Ni  Ni24  1  0.66841947  0.66628200  0.00041663  1
  Ni  Ni25  1  0.83390977  0.83348058  0.16730653  1
  Ni  Ni26  1  0.67059035  0.66695799  0.33144548  1
  Ni  Ni27  1  0.16787082  0.16588769  0.50103315  1
  Ni  Ni28  1  0.99996575  0.00049756  0.66653641  1
  Ni  Ni29  1  0.16680895  0.16688922  0.83373506  1
  Ni  Ni30  1  0.16500804  0.50004555  0.50221179  1
  Ni  Ni31  1  0.99965240  0.33307340  0.66731539  1
  Ni  Ni32  1  0.16568754  0.49899877  0.83269153  1
  Ni  Ni33  1  0.16387153  0.83477051  0.50100280  1
  Ni  Ni34  1  0.99996442  0.66714175  0.66664434  1
  Ni  Ni35  1  0.16554562  0.83482324  0.83236877  1
  Ni  Ni36  1  0.50014494  0.16684551  0.49988231  1
  Ni  Ni37  1  0.33268512  0.00117146  0.66765758  1
  Ni  Ni38  1  0.49990318  0.16716004  0.83323617  1
  Cr  Cr39  1  0.50125033  0.49760768  0.50109863  1
  Ni  Ni40  1  0.33284184  0.33222046  0.66777297  1
  Ni  Ni41  1  0.50132242  0.49903781  0.83256534  1
  Cr  Cr42  1  0.50153383  0.83624622  0.50129870  1
  Ni  Ni43  1  0.33173741  0.66732132  0.66925204  1
  Ni  Ni44  1  0.50124098  0.83455928  0.83258274  1
  Ni  Ni45  1  0.83267114  0.16564558  0.50126720  1
  Ni  Ni46  1  0.66801440  0.00147434  0.66830151  1
  Ni  Ni47  1  0.83402739  0.16701513  0.83350622  1
  Ni  Ni48  1  0.83451852  0.50138331  0.50103504  1
  Ni  Ni49  1  0.66818430  0.33227202  0.66735030  1
  Ni  Ni50  1  0.83369455  0.50030832  0.83347946  1
  Ni  Ni51  1  0.83546621  0.83368246  0.49988018  1
  Ni  Ni52  1  0.66900385  0.66697283  0.66888245  1
  Ni  Ni53  1  0.83395837  0.83340337  0.83349719  1
" 