462,Ni90Fe4Cr4_4,-237.778095208971, 175.738551409005,Ni90Fe4Cr4,"# generated using pymatgen
 data_Cr2FeNi24
_symmetry_space_group_name_H-M   'P 1'
_cell_length_a   7.46023838
_cell_length_b   7.46023838
_cell_length_c   10.55037029
_cell_angle_alpha   90.00000000
_cell_angle_beta   90.00000000
_cell_angle_gamma   90.00000000
_symmetry_Int_Tables_number   1
_chemical_formula_structural   Cr2FeNi24
_chemical_formula_sum   'Cr4 Fe2 Ni48'
_cell_volume   587.18251099
_cell_formula_units_Z   2
loop_
 _symmetry_equiv_pos_site_id
 _symmetry_equiv_pos_as_xyz
  1  'x, y, z'
loop_
 _atom_site_type_symbol
 _atom_site_label
 _atom_site_symmetry_multiplicity
 _atom_site_fract_x
 _atom_site_fract_y
 _atom_site_fract_z
 _atom_site_occupancy
  Ni  Ni0  1  0.00064084  0.00133464  0.00091132  1
  Ni  Ni1  1  0.16692610  0.16719747  0.16715680  1
  Ni  Ni2  1  0.99958186  1.00032726  0.33397126  1
  Ni  Ni3  1  0.00123980  0.33341562  0.00065486  1
  Ni  Ni4  1  0.16708127  0.50014046  0.16737800  1
  Ni  Ni5  1  0.00118552  0.33331023  0.33361988  1
  Ni  Ni6  1  0.00224304  0.66666877  0.00137419  1
  Ni  Ni7  1  0.16693601  0.83405241  0.16667748  1
  Ni  Ni8  1  0.00133469  0.66774486  0.33362777  1
  Fe  Fe9  1  0.33284701  0.00149325  0.00080754  1
  Ni  Ni10  1  0.50026504  0.16726851  0.16716878  1
  Fe  Fe11  1  0.33338246  1.00036852  0.33420803  1
  Ni  Ni12  1  0.33366929  0.33474929  1.00036237  1
  Ni  Ni13  1  0.50046078  0.50029518  0.16676663  1
  Ni  Ni14  1  0.33282197  0.33376088  0.33299685  1
  Ni  Ni15  1  0.33270162  0.66541881  0.00104223  1
  Ni  Ni16  1  0.50039174  0.83382683  0.16732882  1
  Ni  Ni17  1  0.33270348  0.66727098  0.33302626  1
  Ni  Ni18  1  0.66774213  0.00237559  0.00228257  1
  Ni  Ni19  1  0.83410750  0.16717358  0.16696198  1
  Ni  Ni20  1  0.66772966  0.00049087  0.33378765  1
  Ni  Ni21  1  0.66645204  0.33310765  1.00026661  1
  Ni  Ni22  1  0.83382527  0.50029194  0.16713720  1
  Ni  Ni23  1  0.66737161  0.33214201  0.33289828  1
  Ni  Ni24  1  0.66643378  0.66589903  0.00223743  1
  Ni  Ni25  1  0.83398340  0.83390561  0.16712535  1
  Ni  Ni26  1  0.66734141  0.66869599  0.33291669  1
  Ni  Ni27  1  0.16691126  0.16725491  0.50065513  1
  Ni  Ni28  1  0.00276568  0.00132527  0.66656145  1
  Ni  Ni29  1  0.16691184  0.16727358  0.83357039  1
  Ni  Ni30  1  0.16562275  0.50012585  0.50038868  1
  Ni  Ni31  1  0.00100120  0.33357099  0.66706544  1
  Ni  Ni32  1  0.16699630  0.50019496  0.83360658  1
  Ni  Ni33  1  0.16689987  0.83396384  0.50108195  1
  Ni  Ni34  1  0.00203399  0.66647661  0.66633678  1
  Ni  Ni35  1  0.16702825  0.83398892  0.83358819  1
  Ni  Ni36  1  0.49936510  0.16670854  0.49987822  1
  Ni  Ni37  1  0.33158451  0.00133776  0.66638748  1
  Ni  Ni38  1  0.49937792  0.16960388  0.83429988  1
  Cr  Cr39  1  0.50033420  0.49995356  0.50073465  1
  Ni  Ni40  1  0.33274942  0.33316370  0.66798166  1
  Ni  Ni41  1  0.50043959  0.49891793  0.83379300  1
  Ni  Ni42  1  0.49948471  0.83422049  0.49967171  1
  Ni  Ni43  1  0.33174593  0.66686686  0.66726687  1
  Cr  Cr44  1  0.49844355  0.83272705  0.83431358  1
  Ni  Ni45  1  0.83502042  0.16821246  0.49985678  1
  Cr  Cr46  1  0.66781025  0.00250093  0.66526570  1
  Ni  Ni47  1  0.83503290  0.16961412  0.83460380  1
  Ni  Ni48  1  0.83523467  0.50026544  0.50052180  1
  Ni  Ni49  1  0.66760960  0.33391301  0.66821334  1
  Ni  Ni50  1  0.83391597  0.49885404  0.83369637  1
  Ni  Ni51  1  0.83491355  0.83286534  0.49965687  1
  Ni  Ni52  1  0.66762804  0.66516798  0.66623114  1
  Cr  Cr53  1  0.83638310  0.83284962  0.83472361  1
" 