447,Ni90Fe4Cr4_10,-237.736760395412, 175.224567539578,Ni90Fe4Cr4,"# generated using pymatgen
 data_Cr2FeNi24
_symmetry_space_group_name_H-M   'P 1'
_cell_length_a   7.46006458
_cell_length_b   7.46006458
_cell_length_c   10.55012450
_cell_angle_alpha   90.00000000
_cell_angle_beta   90.00000000
_cell_angle_gamma   90.00000000
_symmetry_Int_Tables_number   1
_chemical_formula_structural   Cr2FeNi24
_chemical_formula_sum   'Cr4 Fe2 Ni48'
_cell_volume   587.14147327
_cell_formula_units_Z   2
loop_
 _symmetry_equiv_pos_site_id
 _symmetry_equiv_pos_as_xyz
  1  'x, y, z'
loop_
 _atom_site_type_symbol
 _atom_site_label
 _atom_site_symmetry_multiplicity
 _atom_site_fract_x
 _atom_site_fract_y
 _atom_site_fract_z
 _atom_site_occupancy
  Ni  Ni0  1  0.00170317  0.00142455  0.00107892  1
  Ni  Ni1  1  0.16728591  0.16703170  0.16787769  1
  Ni  Ni2  1  0.00050035  1.00038611  0.33372610  1
  Ni  Ni3  1  0.00129314  0.33299749  0.00147939  1
  Ni  Ni4  1  0.16603300  0.50046899  0.16734526  1
  Ni  Ni5  1  0.00208029  0.33358765  0.33370421  1
  Ni  Ni6  1  0.00258162  0.66700685  0.00232814  1
  Ni  Ni7  1  0.16686965  0.83390569  0.16715283  1
  Ni  Ni8  1  0.00079416  0.66733994  0.33355552  1
  Ni  Ni9  1  0.33381327  1.00012806  0.00050424  1
  Ni  Ni10  1  0.49936465  0.16496804  0.16657701  1
  Ni  Ni11  1  0.33346553  1.00036938  0.33374109  1
  Ni  Ni12  1  0.33262504  0.33270821  0.99966948  1
  Cr  Cr13  1  0.49848744  0.50068021  0.16579276  1
  Ni  Ni14  1  0.33157263  0.33297982  0.33453989  1
  Ni  Ni15  1  0.33278176  0.66848592  0.99934775  1
  Ni  Ni16  1  0.50055793  0.83506647  0.16800278  1
  Ni  Ni17  1  0.33271105  0.66819936  0.33452750  1
  Ni  Ni18  1  0.66594131  0.00132528  0.00147041  1
  Ni  Ni19  1  0.83473537  0.16572239  0.16617118  1
  Ni  Ni20  1  0.66725952  0.99916294  0.33362954  1
  Ni  Ni21  1  0.66745052  0.33197788  1.00010568  1
  Ni  Ni22  1  0.83580369  0.50165436  0.16721049  1
  Cr  Cr23  1  0.66841974  0.33257328  0.33419862  1
  Ni  Ni24  1  0.66612485  0.66811363  0.00154464  1
  Ni  Ni25  1  0.83399820  0.83407830  0.16721891  1
  Ni  Ni26  1  0.66790595  0.66946113  0.33483845  1
  Ni  Ni27  1  0.16728654  0.16701223  0.50028804  1
  Ni  Ni28  1  0.00156518  0.00128341  0.66664949  1
  Ni  Ni29  1  0.16727596  0.16710890  0.83322936  1
  Ni  Ni30  1  0.16877861  0.50075662  0.50029525  1
  Ni  Ni31  1  0.00151315  0.33282767  0.66621545  1
  Ni  Ni32  1  0.16900732  0.50036686  0.83377488  1
  Ni  Ni33  1  0.16561288  0.83366585  0.50070188  1
  Ni  Ni34  1  0.00254151  0.66715101  0.66559751  1
  Ni  Ni35  1  0.16831782  0.83392595  0.83353686  1
  Ni  Ni36  1  0.49973692  0.16770095  0.50100419  1
  Ni  Ni37  1  0.33352503  0.00050992  0.66719850  1
  Ni  Ni38  1  0.50035744  0.16740055  0.83375410  1
  Ni  Ni39  1  0.49893015  0.50083165  0.50161728  1
  Ni  Ni40  1  0.33377995  0.33379318  0.66718704  1
  Ni  Ni41  1  0.49886846  0.50023447  0.83368219  1
  Fe  Fe42  1  0.49915313  0.83495490  0.50043566  1
  Ni  Ni43  1  0.33353630  0.66721291  0.66756906  1
  Ni  Ni44  1  0.49941818  0.83375792  0.83311077  1
  Ni  Ni45  1  0.83436424  0.16452282  0.50163820  1
  Ni  Ni46  1  0.66617693  0.00144924  0.66640851  1
  Ni  Ni47  1  0.83375856  0.16677857  0.83353984  1
  Fe  Fe48  1  0.83555287  0.50041714  0.50088309  1
  Ni  Ni49  1  0.66627909  0.33283162  0.66680603  1
  Cr  Cr50  1  0.83367802  0.49956357  0.83338309  1
  Ni  Ni51  1  0.83424288  0.83440716  0.50029497  1
  Ni  Ni52  1  0.66531376  0.66717093  0.66504184  1
  Cr  Cr53  1  0.83454289  0.83583390  0.83409194  1
" 