8560,Ni91Fe3Cr5_6,-237.4419241381, 173.203544592734,Ni91Fe3Cr5,"# generated using pymatgen
 data_Cr4FeNi49
_symmetry_space_group_name_H-M   'P 1'
_cell_length_a   7.46288680
_cell_length_b   7.46288680
_cell_length_c   10.55411573
_cell_angle_alpha   90.00000000
_cell_angle_beta   90.00000000
_cell_angle_gamma   90.00000000
_symmetry_Int_Tables_number   1
_chemical_formula_structural   Cr4FeNi49
_chemical_formula_sum   'Cr4 Fe1 Ni49'
_cell_volume   587.80809259
_cell_formula_units_Z   1
loop_
 _symmetry_equiv_pos_site_id
 _symmetry_equiv_pos_as_xyz
  1  'x, y, z'
loop_
 _atom_site_type_symbol
 _atom_site_label
 _atom_site_symmetry_multiplicity
 _atom_site_fract_x
 _atom_site_fract_y
 _atom_site_fract_z
 _atom_site_occupancy
  Ni  Ni0  1  0.00110667  0.99934440  0.00140892  1
  Ni  Ni1  1  0.16692543  0.16694543  0.16685899  1
  Ni  Ni2  1  1.00013155  0.00191648  0.33357352  1
  Ni  Ni3  1  0.00110667  0.33454647  0.00140892  1
  Ni  Ni4  1  0.16836662  0.49916303  0.16649208  1
  Ni  Ni5  1  1.00013155  0.33197439  0.33357352  1
  Ni  Ni6  1  1.00021537  0.66694543  0.99994186  1
  Ni  Ni7  1  0.16836662  0.83472784  0.16649208  1
  Cr  Cr8  1  1.00008264  0.66694543  0.33427287  1
  Ni  Ni9  1  0.33417743  0.00091097  0.99997445  1
  Ni  Ni10  1  0.50008808  0.16694543  0.16746614  1
  Ni  Ni11  1  0.33391696  0.00075559  0.33361809  1
  Ni  Ni12  1  0.33417743  0.33297990  0.99997445  1
  Ni  Ni13  1  0.50013975  0.50061555  0.16714005  1
  Ni  Ni14  1  0.33391696  0.33313528  0.33361809  1
  Ni  Ni15  1  0.33355101  0.66694543  0.00053370  1
  Ni  Ni16  1  0.50013975  0.83327532  0.16714005  1
  Ni  Ni17  1  0.33512851  0.66694543  0.33348006  1
  Ni  Ni18  1  0.66554826  1.00001882  0.00133208  1
  Ni  Ni19  1  0.83381234  0.16694543  0.16722511  1
  Ni  Ni20  1  0.66679449  0.00068934  0.33333579  1
  Ni  Ni21  1  0.66554826  0.33387205  0.00133208  1
  Ni  Ni22  1  0.83234171  0.49917873  0.16617055  1
  Ni  Ni23  1  0.66679449  0.33320153  0.33333579  1
  Ni  Ni24  1  0.66708017  0.66694543  0.99993593  1
  Ni  Ni25  1  0.83234171  0.83471214  0.16617055  1
  Ni  Ni26  1  0.66561811  0.66694543  0.33388457  1
  Ni  Ni27  1  0.16615582  0.16694543  0.50058546  1
  Ni  Ni28  1  0.00103161  0.00098606  0.66595868  1
  Ni  Ni29  1  0.16828583  0.16694543  0.83340966  1
  Ni  Ni30  1  0.16880101  0.49672450  0.49916550  1
  Ni  Ni31  1  0.00103161  0.33290480  0.66595868  1
  Ni  Ni32  1  0.16736945  0.49803142  0.83523278  1
  Ni  Ni33  1  0.16880101  0.83716636  0.49916550  1
  Cr  Cr34  1  0.99896225  0.66694543  0.66664925  1
  Ni  Ni35  1  0.16736945  0.83585945  0.83523278  1
  Fe  Fe36  1  0.50030856  0.16694543  0.49998136  1
  Ni  Ni37  1  0.33402785  0.00220013  0.66709178  1
  Ni  Ni38  1  0.49888054  0.16694543  0.83280551  1
  Ni  Ni39  1  0.50108493  0.50033977  0.49931664  1
  Ni  Ni40  1  0.33402785  0.33169073  0.66709178  1
  Ni  Ni41  1  0.50111417  0.49964672  0.83442886  1
  Ni  Ni42  1  0.50108493  0.83355110  0.49931664  1
  Cr  Cr43  1  0.33459051  0.66694543  0.66715926  1
  Ni  Ni44  1  0.50111417  0.83424415  0.83442886  1
  Ni  Ni45  1  0.83445266  0.16694543  0.50000607  1
  Ni  Ni46  1  0.66574656  0.99997407  0.66610180  1
  Cr  Cr47  1  0.83416185  0.16694543  0.83391676  1
  Ni  Ni48  1  0.83095156  0.49769764  0.50062952  1
  Ni  Ni49  1  0.66574656  0.33391680  0.66610180  1
  Ni  Ni50  1  0.83230857  0.50049937  0.83400678  1
  Ni  Ni51  1  0.83095156  0.83619323  0.50062952  1
  Ni  Ni52  1  0.66683541  0.66694543  0.66698512  1
  Ni  Ni53  1  0.83230857  0.83339149  0.83400678  1
" 