7612,Ni91Cr9_10,-202.730803234564, 184.703374308328,Ni91Cr9,"# generated using pymatgen
 data_Cr49Ni5
_symmetry_space_group_name_H-M   'P 1'
_cell_length_a   7.59387724
_cell_length_b   7.59387724
_cell_length_c   10.73936419
_cell_angle_alpha   90.00000000
_cell_angle_beta   90.00000000
_cell_angle_gamma   90.00000000
_symmetry_Int_Tables_number   1
_chemical_formula_structural   Cr49Ni5
_chemical_formula_sum   'Cr49 Ni5'
_cell_volume   619.30660989
_cell_formula_units_Z   1
loop_
 _symmetry_equiv_pos_site_id
 _symmetry_equiv_pos_as_xyz
  1  'x, y, z'
loop_
 _atom_site_type_symbol
 _atom_site_label
 _atom_site_symmetry_multiplicity
 _atom_site_fract_x
 _atom_site_fract_y
 _atom_site_fract_z
 _atom_site_occupancy
  Cr  Cr0  1  -0.00751215  0.99079407  0.99137393  1
  Cr  Cr1  1  0.15892855  0.15623371  0.15961144  1
  Cr  Cr2  1  -0.00770985  0.99120676  0.32455192  1
  Cr  Cr3  1  -0.00757397  0.32494378  0.99161036  1
  Cr  Cr4  1  0.15822839  0.49283637  0.15835621  1
  Cr  Cr5  1  -0.00771867  0.32540536  0.32574673  1
  Cr  Cr6  1  -0.00755886  0.65920216  -0.00711887  1
  Ni  Ni7  1  0.15959644  0.82630888  0.15953325  1
  Cr  Cr8  1  0.99155892  0.65832128  0.32376404  1
  Cr  Cr9  1  0.32458745  0.99135129  -0.00751667  1
  Cr  Cr10  1  0.49197259  0.15819394  0.15839946  1
  Ni  Ni11  1  0.32359083  0.98997877  0.32361996  1
  Cr  Cr12  1  0.32571189  0.32492217  0.99163031  1
  Cr  Cr13  1  0.49273020  0.49070202  0.15702517  1
  Cr  Cr14  1  0.32488380  0.32398193  0.32492549  1
  Cr  Cr15  1  0.32460258  0.65867622  -0.00824815  1
  Cr  Cr16  1  0.48958935  0.82600568  0.15956813  1
  Cr  Cr17  1  0.32503813  0.65837829  0.32422508  1
  Cr  Cr18  1  0.65783601  0.99163471  0.99084798  1
  Cr  Cr19  1  0.82413996  0.15930172  0.15712615  1
  Cr  Cr20  1  0.65698678  0.99104622  0.32571952  1
  Ni  Ni21  1  0.65828676  0.32498840  0.99127381  1
  Cr  Cr22  1  0.82413425  0.49035448  0.15749750  1
  Cr  Cr23  1  0.65776969  0.32544689  0.32535811  1
  Cr  Cr24  1  0.65785752  0.65835176  -0.00760748  1
  Cr  Cr25  1  0.82615807  0.82534454  0.15835357  1
  Cr  Cr26  1  0.65830047  0.65845685  0.32495473  1
  Cr  Cr27  1  0.15917714  0.15675607  0.49035279  1
  Cr  Cr28  1  0.99108625  -0.00788783  0.65910078  1
  Cr  Cr29  1  0.15816979  0.15817677  0.82496834  1
  Cr  Cr30  1  0.15913127  0.49309396  0.49283407  1
  Cr  Cr31  1  0.99151344  0.32453321  0.65756201  1
  Cr  Cr32  1  0.15903544  0.49280527  0.82356560  1
  Cr  Cr33  1  0.15985271  0.82496052  0.49163367  1
  Cr  Cr34  1  -0.00805975  0.65825535  0.65831786  1
  Cr  Cr35  1  0.15931124  0.82401130  0.82416767  1
  Cr  Cr36  1  0.49126903  0.15784124  0.49091582  1
  Cr  Cr37  1  0.32552583  -0.00807954  0.65864890  1
  Cr  Cr38  1  0.49315497  0.15980234  0.82581387  1
  Cr  Cr39  1  0.49139704  0.49210644  0.49335628  1
  Cr  Cr40  1  0.32585991  0.32569625  0.65838422  1
  Cr  Cr41  1  0.49232354  0.49141919  0.82452945  1
  Cr  Cr42  1  0.48941393  0.82500507  0.49153739  1
  Ni  Ni43  1  0.32536667  0.65821354  0.65829679  1
  Cr  Cr44  1  0.49049310  0.82383089  0.82362991  1
  Cr  Cr45  1  0.82445118  0.15900359  0.49258579  1
  Cr  Cr46  1  0.65835155  -0.00745788  0.65837476  1
  Cr  Cr47  1  0.82373928  0.16000467  0.82536650  1
  Cr  Cr48  1  0.82447367  0.49109587  0.49175605  1
  Ni  Ni49  1  0.65797633  0.32532919  0.65878641  1
  Cr  Cr50  1  0.82371021  0.49034742  0.82582168  1
  Cr  Cr51  1  0.82553461  0.82496072  0.49165041  1
  Cr  Cr52  1  0.65729687  0.65820837  0.65756976  1
  Cr  Cr53  1  0.82508735  0.82465751  0.82494930  1
" 