7738,Ni91Fe3Cr5_11,-237.410678621778, 172.919314695188,Ni91Fe3Cr5,"# generated using pymatgen
 data_Cr4FeNi49
_symmetry_space_group_name_H-M   'P 1'
_cell_length_a   7.46332873
_cell_length_b   7.46332873
_cell_length_c   10.55474071
_cell_angle_alpha   90.00000000
_cell_angle_beta   90.00000000
_cell_angle_gamma   90.00000000
_symmetry_Int_Tables_number   1
_chemical_formula_structural   Cr4FeNi49
_chemical_formula_sum   'Cr4 Fe1 Ni49'
_cell_volume   587.91252230
_cell_formula_units_Z   1
loop_
 _symmetry_equiv_pos_site_id
 _symmetry_equiv_pos_as_xyz
  1  'x, y, z'
loop_
 _atom_site_type_symbol
 _atom_site_label
 _atom_site_symmetry_multiplicity
 _atom_site_fract_x
 _atom_site_fract_y
 _atom_site_fract_z
 _atom_site_occupancy
  Ni  Ni0  1  0.99974156  0.99972650  0.00041776  1
  Ni  Ni1  1  0.16677447  0.16667800  0.16682195  1
  Ni  Ni2  1  0.00149250  0.99999042  0.33330573  1
  Ni  Ni3  1  0.99986733  0.33435275  0.00042105  1
  Ni  Ni4  1  0.16529932  0.50026931  0.16690825  1
  Ni  Ni5  1  1.00019159  0.33408146  0.33307133  1
  Ni  Ni6  1  0.00114819  0.66669203  0.99997987  1
  Ni  Ni7  1  0.16664423  0.83380723  0.16714208  1
  Ni  Ni8  1  0.00049136  0.66667463  0.33385111  1
  Ni  Ni9  1  0.33434400  0.99955563  0.00044398  1
  Ni  Ni10  1  0.49919510  0.16644617  0.16605813  1
  Ni  Ni11  1  0.33241625  0.99985002  0.33330839  1
  Ni  Ni12  1  0.33310922  0.33344003  0.99914815  1
  Cr  Cr13  1  0.50013625  0.49994419  0.16722842  1
  Ni  Ni14  1  0.33275347  0.33312802  0.33437596  1
  Ni  Ni15  1  0.33186954  0.66779146  0.99941961  1
  Ni  Ni16  1  0.49912103  0.83430398  0.16601382  1
  Ni  Ni17  1  0.33269658  0.66776573  0.33439648  1
  Ni  Ni18  1  0.66669257  0.00081827  1.00001153  1
  Ni  Ni19  1  0.83475299  0.16776274  0.16610865  1
  Cr  Cr20  1  0.66626157  1.00006877  0.33355893  1
  Ni  Ni21  1  0.66777504  0.33182929  0.99937615  1
  Ni  Ni22  1  0.83529291  0.50016124  0.16712166  1
  Ni  Ni23  1  0.66779310  0.33424978  0.33466605  1
  Fe  Fe24  1  0.66738914  0.66766526  0.99959314  1
  Ni  Ni25  1  0.83496133  0.83276758  0.16601763  1
  Ni  Ni26  1  0.66759846  0.66635977  0.33371698  1
  Ni  Ni27  1  0.16893913  0.16669058  0.49824603  1
  Cr  Cr28  1  1.00006593  0.99878741  0.66694289  1
  Ni  Ni29  1  0.16892340  0.16655891  0.83570842  1
  Ni  Ni30  1  0.16788074  0.50116328  0.49938532  1
  Cr  Cr31  1  0.00059813  0.33578335  0.66756219  1
  Ni  Ni32  1  0.16792240  0.50130760  0.83446277  1
  Ni  Ni33  1  0.16772361  0.83289856  0.49941115  1
  Ni  Ni34  1  0.00049953  0.66666923  0.66687723  1
  Ni  Ni35  1  0.16769704  0.83289717  0.83415714  1
  Ni  Ni36  1  0.49904818  0.16794218  0.50127685  1
  Ni  Ni37  1  0.33576939  0.99981144  0.66700571  1
  Ni  Ni38  1  0.50022146  0.16695395  0.83338109  1
  Ni  Ni39  1  0.50044152  0.50032623  0.50040786  1
  Ni  Ni40  1  0.33547659  0.33417012  0.66724290  1
  Ni  Ni41  1  0.50027408  0.50007027  0.83317922  1
  Ni  Ni42  1  0.49933421  0.83246991  0.50106197  1
  Ni  Ni43  1  0.33368281  0.66676314  0.66689587  1
  Ni  Ni44  1  0.50015466  0.83371501  0.83364368  1
  Ni  Ni45  1  0.83280997  0.16780532  0.49934818  1
  Ni  Ni46  1  0.66504401  1.00014971  0.66707970  1
  Ni  Ni47  1  0.83168961  0.16679775  0.83528737  1
  Ni  Ni48  1  0.83245388  0.50140631  0.49919355  1
  Ni  Ni49  1  0.66528247  0.33368771  0.66667695  1
  Ni  Ni50  1  0.83254358  0.50121015  0.83448129  1
  Ni  Ni51  1  0.83368555  0.83154167  0.50045456  1
  Ni  Ni52  1  0.66658320  0.66692953  0.66736425  1
  Ni  Ni53  1  0.83289958  0.83276702  0.83423683  1
" 