6944,Ni91Cr9_12,-202.713638010219, 185.438109485571,Ni91Cr9,"# generated using pymatgen
 data_Cr49Ni5
_symmetry_space_group_name_H-M   'P 1'
_cell_length_a   7.59701686
_cell_length_b   7.59701686
_cell_length_c   10.74380427
_cell_angle_alpha   90.00000000
_cell_angle_beta   90.00000000
_cell_angle_gamma   90.00000000
_symmetry_Int_Tables_number   1
_chemical_formula_structural   Cr49Ni5
_chemical_formula_sum   'Cr49 Ni5'
_cell_volume   620.07506599
_cell_formula_units_Z   1
loop_
 _symmetry_equiv_pos_site_id
 _symmetry_equiv_pos_as_xyz
  1  'x, y, z'
loop_
 _atom_site_type_symbol
 _atom_site_label
 _atom_site_symmetry_multiplicity
 _atom_site_fract_x
 _atom_site_fract_y
 _atom_site_fract_z
 _atom_site_occupancy
  Cr  Cr0  1  -0.00712964  -0.00723719  -0.00765061  1
  Ni  Ni1  1  0.16058919  0.15830517  0.15800284  1
  Cr  Cr2  1  -0.00732679  -0.00721837  0.32317730  1
  Cr  Cr3  1  -0.00651599  0.32497201  0.99104281  1
  Cr  Cr4  1  0.15880547  0.49147227  0.15809401  1
  Cr  Cr5  1  -0.00846585  0.32496702  0.32523194  1
  Cr  Cr6  1  -0.00772463  0.65662538  0.99019571  1
  Cr  Cr7  1  0.15752471  0.82508582  0.15856837  1
  Cr  Cr8  1  0.99005765  0.65678966  0.32580562  1
  Cr  Cr9  1  0.32505384  -0.00664366  -0.00649818  1
  Ni  Ni10  1  0.48897128  0.15790052  0.15798424  1
  Cr  Cr11  1  0.32594269  -0.00756415  0.32390295  1
  Cr  Cr12  1  0.32356869  0.32349021  -0.00777655  1
  Cr  Cr13  1  0.49137818  0.49037895  0.15769488  1
  Cr  Cr14  1  0.32448890  0.32231201  0.32196925  1
  Cr  Cr15  1  0.32362464  0.65735163  0.98966888  1
  Cr  Cr16  1  0.49140258  0.82401429  0.15819409  1
  Cr  Cr17  1  0.32594114  0.65948582  0.32614888  1
  Cr  Cr18  1  0.65643977  -0.00762837  -0.00798067  1
  Cr  Cr19  1  0.82477824  0.15798239  0.15773201  1
  Cr  Cr20  1  0.65584144  0.99128991  0.32472693  1
  Cr  Cr21  1  0.65716812  0.32354801  -0.00741508  1
  Cr  Cr22  1  0.82413741  0.49186885  0.15897802  1
  Cr  Cr23  1  0.65828664  0.32466550  0.32492409  1
  Cr  Cr24  1  0.65830370  0.65828484  -0.00853407  1
  Cr  Cr25  1  0.82542740  0.82451194  0.15687708  1
  Cr  Cr26  1  0.65847315  0.65838084  0.32707313  1
  Cr  Cr27  1  0.15801401  0.15798462  0.49136467  1
  Cr  Cr28  1  0.99143466  0.99116222  0.65848776  1
  Cr  Cr29  1  0.15800603  0.15860284  0.82367627  1
  Cr  Cr30  1  0.15816243  0.49111178  0.49146816  1
  Cr  Cr31  1  -0.00853689  0.32705227  0.65807375  1
  Ni  Ni32  1  0.15787342  0.49121415  0.82477397  1
  Cr  Cr33  1  0.15936824  0.82521969  0.49101143  1
  Cr  Cr34  1  0.99114712  0.65618257  0.65865497  1
  Cr  Cr35  1  0.15797645  0.82399570  0.82476382  1
  Cr  Cr36  1  0.49108021  0.15818204  0.49214474  1
  Cr  Cr37  1  0.32606477  0.99027829  0.65665209  1
  Cr  Cr38  1  0.49202715  0.15881766  0.82444272  1
  Cr  Cr39  1  0.49165776  0.49163910  0.49101027  1
  Cr  Cr40  1  0.32345101  0.32576234  0.65988462  1
  Cr  Cr41  1  0.48990564  0.49089318  0.82562667  1
  Ni  Ni42  1  0.49180292  0.82465669  0.49156057  1
  Cr  Cr43  1  0.32480981  0.65825581  0.65846369  1
  Cr  Cr44  1  0.49142964  0.82460714  0.82433192  1
  Cr  Cr45  1  0.82521977  0.15938693  0.49271493  1
  Cr  Cr46  1  0.65697198  0.98992568  0.65759175  1
  Cr  Cr47  1  0.82432881  0.15755579  0.82388863  1
  Ni  Ni48  1  0.82465296  0.49179449  0.49156341  1
  Cr  Cr49  1  0.65929096  0.32608710  0.65721299  1
  Cr  Cr50  1  0.82450889  0.49089701  0.82511992  1
  Cr  Cr51  1  0.82503061  0.82504218  0.49100129  1
  Cr  Cr52  1  0.65837520  0.65845855  0.65600847  1
  Cr  Cr53  1  0.82499040  0.82592873  0.82645449  1
" 