1395,Ni91Cr9_5,-202.758703260207, 184.286140101173,Ni91Cr9,"# generated using pymatgen
 data_Cr49Ni5
_symmetry_space_group_name_H-M   'P 1'
_cell_length_a   7.59516120
_cell_length_b   7.59516120
_cell_length_c   10.74117998
_cell_angle_alpha   90.00000000
_cell_angle_beta   90.00000000
_cell_angle_gamma   90.00000000
_symmetry_Int_Tables_number   1
_chemical_formula_structural   Cr49Ni5
_chemical_formula_sum   'Cr49 Ni5'
_cell_volume   619.62079547
_cell_formula_units_Z   1
loop_
 _symmetry_equiv_pos_site_id
 _symmetry_equiv_pos_as_xyz
  1  'x, y, z'
loop_
 _atom_site_type_symbol
 _atom_site_label
 _atom_site_symmetry_multiplicity
 _atom_site_fract_x
 _atom_site_fract_y
 _atom_site_fract_z
 _atom_site_occupancy
  Cr  Cr0  1  0.99134411  0.99101049  0.99145094  1
  Cr  Cr1  1  0.15801008  0.15845547  0.15955506  1
  Cr  Cr2  1  -0.00668536  -0.00669144  0.32564466  1
  Cr  Cr3  1  0.99081683  0.32564871  0.99130892  1
  Cr  Cr4  1  0.15748357  0.49081529  0.15830879  1
  Ni  Ni5  1  -0.00759136  0.32405691  0.32574077  1
  Cr  Cr6  1  0.99136622  0.65803957  0.99036597  1
  Cr  Cr7  1  0.15909211  0.82542716  0.15775085  1
  Cr  Cr8  1  0.99023263  0.65723476  0.32456392  1
  Cr  Cr9  1  0.32489865  -0.00843311  -0.00794414  1
  Cr  Cr10  1  0.49103838  0.15737343  0.15775085  1
  Ni  Ni11  1  0.32405811  -0.00759257  0.32573946  1
  Cr  Cr12  1  0.32545505  0.32512143  0.99145094  1
  Cr  Cr13  1  0.49209369  0.49242693  0.15886696  1
  Cr  Cr14  1  0.32315699  0.32315090  0.32564466  1
  Cr  Cr15  1  0.32434977  0.65800961  0.99145082  1
  Cr  Cr16  1  0.49156779  0.82489776  0.15972989  1
  Cr  Cr17  1  0.32623205  0.65923644  0.32456394  1
  Cr  Cr18  1  0.65845593  -0.00788423  0.99145082  1
  Cr  Cr19  1  0.82565025  0.15898197  0.15830879  1
  Cr  Cr20  1  0.65722910  0.99023349  0.32456394  1
  Cr  Cr21  1  0.65842597  0.32509932  0.99036597  1
  Cr  Cr22  1  0.82512044  0.49134510  0.15990232  1
  Cr  Cr23  1  0.65923078  0.32623291  0.32456392  1
  Cr  Cr24  1  0.65898136  0.65748418  0.99131054  1
  Cr  Cr25  1  0.82403861  0.82437185  0.15886696  1
  Ni  Ni26  1  0.65823294  0.65823260  0.32490054  1
  Ni  Ni27  1  0.15832559  0.15813996  0.48978620  1
  Cr  Cr28  1  -0.00790769  -0.00824083  0.65759873  1
  Cr  Cr29  1  0.15818521  0.15828033  0.82485088  1
  Cr  Cr30  1  0.15748401  0.48943721  0.49115420  1
  Cr  Cr31  1  0.99156317  0.32490238  0.65774429  1
  Cr  Cr32  1  0.15717539  0.49189268  0.82523628  1
  Cr  Cr33  1  0.15909180  0.82680200  0.49171216  1
  Cr  Cr34  1  0.99103703  0.65803722  0.65977083  1
  Cr  Cr35  1  0.15819221  0.82452517  0.82523635  1
  Cr  Cr36  1  0.48966354  0.15737374  0.49171216  1
  Cr  Cr37  1  0.32415228  -0.00768674  0.65699739  1
  Cr  Cr38  1  0.49194038  0.15827333  0.82523635  1
  Cr  Cr39  1  0.49226838  0.49260166  0.49115260  1
  Cr  Cr40  1  0.32470637  0.32437323  0.65759873  1
  Cr  Cr41  1  0.49239749  0.49135052  0.82467783  1
  Cr  Cr42  1  0.49174267  0.82472287  0.49029038  1
  Cr  Cr43  1  0.32467723  0.65801018  0.65868405  1
  Cr  Cr44  1  0.49139133  0.82507421  0.82467789  1
  Cr  Cr45  1  0.82702833  0.15898154  0.49115420  1
  Cr  Cr46  1  0.65845536  -0.00821169  0.65868405  1
  Cr  Cr47  1  0.82457287  0.15929015  0.82523628  1
  Cr  Cr48  1  0.82494528  0.49152026  0.49011767  1
  Cr  Cr49  1  0.65842832  0.32542851  0.65977083  1
  Ni  Ni50  1  0.82480662  0.49165892  0.82499376  1
  Cr  Cr51  1  0.82386388  0.82419717  0.49115260  1
  Cr  Cr52  1  0.65898287  0.65748267  0.65848810  1
  Cr  Cr53  1  0.82511502  0.82406806  0.82467783  1
" 