4431,Ni91Fe3Cr5_3,-237.428167769799, 172.658695986239,Ni91Fe3Cr5,"# generated using pymatgen
 data_Cr4FeNi49
_symmetry_space_group_name_H-M   'P 1'
_cell_length_a   7.46111544
_cell_length_b   7.46111544
_cell_length_c   10.55161064
_cell_angle_alpha   90.00000000
_cell_angle_beta   90.00000000
_cell_angle_gamma   90.00000000
_symmetry_Int_Tables_number   1
_chemical_formula_structural   Cr4FeNi49
_chemical_formula_sum   'Cr4 Fe1 Ni49'
_cell_volume   587.38963160
_cell_formula_units_Z   1
loop_
 _symmetry_equiv_pos_site_id
 _symmetry_equiv_pos_as_xyz
  1  'x, y, z'
loop_
 _atom_site_type_symbol
 _atom_site_label
 _atom_site_symmetry_multiplicity
 _atom_site_fract_x
 _atom_site_fract_y
 _atom_site_fract_z
 _atom_site_occupancy
  Ni  Ni0  1  0.99823403  0.99803793  0.00040761  1
  Cr  Cr1  1  0.16602732  0.16768476  0.16787081  1
  Ni  Ni2  1  0.99906471  0.99875348  0.33465481  1
  Ni  Ni3  1  0.99837418  0.33591324  1.00036682  1
  Ni  Ni4  1  0.16708426  0.50164374  0.16662520  1
  Ni  Ni5  1  0.99919719  0.33505759  0.33494834  1
  Ni  Ni6  1  1.00029133  0.66731733  0.99997755  1
  Ni  Ni7  1  0.16743866  0.83250242  0.16635309  1
  Ni  Ni8  1  0.00040094  0.66741807  0.33350379  1
  Ni  Ni9  1  0.33476382  0.99920112  0.00126515  1
  Ni  Ni10  1  0.50185136  0.16707179  0.16601408  1
  Ni  Ni11  1  0.33493268  0.99948386  0.33483926  1
  Ni  Ni12  1  0.33585711  0.33593503  0.00051485  1
  Ni  Ni13  1  0.50081598  0.50088421  0.16700419  1
  Ni  Ni14  1  0.33515810  0.33468411  0.33446981  1
  Ni  Ni15  1  0.33264810  0.66612264  0.00116300  1
  Ni  Ni16  1  0.50063663  0.83325832  0.16741843  1
  Ni  Ni17  1  0.33335824  0.66703929  0.33378599  1
  Ni  Ni18  1  0.66844882  0.00128480  0.00131849  1
  Ni  Ni19  1  0.83234223  0.16741836  0.16702822  1
  Ni  Ni20  1  0.66715428  0.00059028  0.33351143  1
  Ni  Ni21  1  0.66713721  0.33370262  1.00001090  1
  Ni  Ni22  1  0.83328334  0.50016936  0.16686306  1
  Ni  Ni23  1  0.66677752  0.33337300  0.33377558  1
  Ni  Ni24  1  0.66831660  0.66629512  0.00143590  1
  Ni  Ni25  1  0.83311099  0.83358500  0.16662417  1
  Ni  Ni26  1  0.66744624  0.66723721  0.33373371  1
  Ni  Ni27  1  0.16579437  0.16617843  0.49938245  1
  Ni  Ni28  1  0.99924547  0.99910392  0.66626705  1
  Cr  Cr29  1  0.16500816  0.16583704  0.83480945  1
  Ni  Ni30  1  0.16601706  0.50113638  0.49966068  1
  Ni  Ni31  1  0.99799484  0.33477396  0.66605141  1
  Ni  Ni32  1  0.16642623  0.50221429  0.83484652  1
  Ni  Ni33  1  0.16731707  0.83388871  0.50107152  1
  Ni  Ni34  1  1.00039184  0.66732772  0.66768956  1
  Ni  Ni35  1  0.16618621  0.83258923  0.83375330  1
  Ni  Ni36  1  0.50155818  0.16603076  0.50037813  1
  Ni  Ni37  1  0.33353105  0.99860722  0.66500185  1
  Fe  Fe38  1  0.50275339  0.16741888  0.83445686  1
  Ni  Ni39  1  0.50182617  0.50184507  0.49967797  1
  Cr  Cr40  1  0.33481246  0.33502985  0.66607285  1
  Ni  Ni41  1  0.50184268  0.50094152  0.83459334  1
  Ni  Ni42  1  0.50074570  0.83327497  0.50032058  1
  Ni  Ni43  1  0.33246392  0.66761913  0.66621488  1
  Cr  Cr44  1  0.50092833  0.83230248  0.83309322  1
  Ni  Ni45  1  0.83394049  0.16729532  0.50043702  1
  Ni  Ni46  1  0.66855034  0.00136221  0.66619676  1
  Ni  Ni47  1  0.83307643  0.16729312  0.83375710  1
  Ni  Ni48  1  0.83326734  0.50029185  0.50082360  1
  Ni  Ni49  1  0.66874598  0.33364807  0.66734655  1
  Ni  Ni50  1  0.83300949  0.50005795  0.83352193  1
  Ni  Ni51  1  0.83311555  0.83358213  0.50084795  1
  Ni  Ni52  1  0.66835740  0.66621890  0.66597003  1
  Ni  Ni53  1  0.83440912  0.83393334  0.83374032  1
" 