8653,Ni91Fe3Cr5_16,-237.494038810112, 174.287984551705,Ni91Fe3Cr5,"# generated using pymatgen
 data_Cr4FeNi49
_symmetry_space_group_name_H-M   'P 1'
_cell_length_a   7.46237383
_cell_length_b   7.46237383
_cell_length_c   10.55339028
_cell_angle_alpha   90.00000000
_cell_angle_beta   90.00000000
_cell_angle_gamma   90.00000000
_symmetry_Int_Tables_number   1
_chemical_formula_structural   Cr4FeNi49
_chemical_formula_sum   'Cr4 Fe1 Ni49'
_cell_volume   587.68688924
_cell_formula_units_Z   1
loop_
 _symmetry_equiv_pos_site_id
 _symmetry_equiv_pos_as_xyz
  1  'x, y, z'
loop_
 _atom_site_type_symbol
 _atom_site_label
 _atom_site_symmetry_multiplicity
 _atom_site_fract_x
 _atom_site_fract_y
 _atom_site_fract_z
 _atom_site_occupancy
  Ni  Ni0  1  0.00041702  0.99989039  0.00031486  1
  Ni  Ni1  1  0.16672606  0.16672074  0.16727156  1
  Ni  Ni2  1  0.00167072  0.99920646  0.33268961  1
  Ni  Ni3  1  0.00222382  0.33350331  1.00003268  1
  Ni  Ni4  1  0.16686625  0.50080814  0.16721052  1
  Ni  Ni5  1  0.00153254  0.33438624  0.33265789  1
  Ni  Ni6  1  1.00005150  0.66754256  0.00059673  1
  Ni  Ni7  1  0.16736839  0.83341880  0.16705521  1
  Ni  Ni8  1  0.00195101  0.66726196  0.33378829  1
  Ni  Ni9  1  0.33325102  0.00057333  1.00003917  1
  Ni  Ni10  1  0.49958943  0.16564466  0.16856625  1
  Ni  Ni11  1  0.33327615  0.00033243  0.33400240  1
  Ni  Ni12  1  0.33196757  0.33331929  0.00042519  1
  Ni  Ni13  1  0.49834133  0.50075781  0.16717560  1
  Ni  Ni14  1  0.33340164  0.33341160  0.33374208  1
  Ni  Ni15  1  0.33341725  0.66706280  0.00032328  1
  Ni  Ni16  1  0.49893441  0.83457244  0.16575369  1
  Ni  Ni17  1  0.33213897  0.66720016  0.33377602  1
  Ni  Ni18  1  0.66728114  0.99840714  0.00060343  1
  Ni  Ni19  1  0.83464625  0.16613014  0.16781313  1
  Ni  Ni20  1  0.66598833  0.00086259  0.33234557  1
  Cr  Cr21  1  0.66687329  0.33359115  1.00031290  1
  Ni  Ni22  1  0.83575282  0.50009760  0.16707506  1
  Ni  Ni23  1  0.66601027  0.33325719  0.33303907  1
  Ni  Ni24  1  0.66746419  0.66881507  1.00020153  1
  Ni  Ni25  1  0.83473207  0.83474533  0.16674429  1
  Cr  Cr26  1  0.66748225  0.66757395  0.33297517  1
  Ni  Ni27  1  0.16694354  0.16551926  0.49944464  1
  Ni  Ni28  1  0.00160695  0.99914113  0.66789984  1
  Ni  Ni29  1  0.16563813  0.16566161  0.83430978  1
  Ni  Ni30  1  0.16564482  0.50189964  0.49927878  1
  Ni  Ni31  1  0.99990987  0.33441207  0.66828182  1
  Ni  Ni32  1  0.16582107  0.50192335  0.83453602  1
  Ni  Ni33  1  0.16802050  0.83339725  0.50031595  1
  Ni  Ni34  1  0.00035068  0.66731340  0.66652499  1
  Ni  Ni35  1  0.16729040  0.83333101  0.83360553  1
  Ni  Ni36  1  0.50029833  0.16532514  0.49928838  1
  Ni  Ni37  1  0.33330265  0.99875829  0.66694485  1
  Ni  Ni38  1  0.50070149  0.16463594  0.83318656  1
  Ni  Ni39  1  0.50060578  0.50111627  0.50031858  1
  Cr  Cr40  1  0.33292227  0.33296545  0.66720665  1
  Ni  Ni41  1  0.50032052  0.50275020  0.83341713  1
  Ni  Ni42  1  0.49833160  0.83444918  0.50135280  1
  Ni  Ni43  1  0.33344384  0.66854247  0.66688236  1
  Ni  Ni44  1  0.50000456  0.83352175  0.83379884  1
  Cr  Cr45  1  0.83366076  0.16786398  0.50029974  1
  Ni  Ni46  1  0.66608374  0.99917094  0.66793406  1
  Ni  Ni47  1  0.83456713  0.16606040  0.83284552  1
  Ni  Ni48  1  0.83471421  0.50020577  0.50133895  1
  Ni  Ni49  1  0.66735206  0.33454743  0.66762195  1
  Ni  Ni50  1  0.83475430  0.50115340  0.83247641  1
  Fe  Fe51  1  0.83442478  0.83334506  0.50108950  1
  Ni  Ni52  1  0.66715803  0.66714104  0.66720622  1
  Ni  Ni53  1  0.83368273  0.83366573  0.83297340  1
" 