1270,Ni91Fe3Cr5_14,-237.37933371939, 171.764931258459,Ni91Fe3Cr5,"# generated using pymatgen
 data_Cr4FeNi49
_symmetry_space_group_name_H-M   'P 1'
_cell_length_a   7.46433434
_cell_length_b   7.46433434
_cell_length_c   10.55616285
_cell_angle_alpha   90.00000000
_cell_angle_beta   90.00000000
_cell_angle_gamma   90.00000000
_symmetry_Int_Tables_number   1
_chemical_formula_structural   Cr4FeNi49
_chemical_formula_sum   'Cr4 Fe1 Ni49'
_cell_volume   588.15020028
_cell_formula_units_Z   1
loop_
 _symmetry_equiv_pos_site_id
 _symmetry_equiv_pos_as_xyz
  1  'x, y, z'
loop_
 _atom_site_type_symbol
 _atom_site_label
 _atom_site_symmetry_multiplicity
 _atom_site_fract_x
 _atom_site_fract_y
 _atom_site_fract_z
 _atom_site_occupancy
  Ni  Ni0  1  0.00037527  0.00018175  0.99937385  1
  Ni  Ni1  1  0.16672159  0.16674961  0.16683473  1
  Ni  Ni2  1  0.99825447  0.00018175  0.33250521  1
  Ni  Ni3  1  0.99923616  0.33253969  0.00117187  1
  Ni  Ni4  1  0.16696217  0.50018175  0.16729945  1
  Ni  Ni5  1  0.99810177  0.33354266  0.33181510  1
  Ni  Ni6  1  0.99923616  0.66782381  0.00117187  1
  Ni  Ni7  1  0.16672159  0.83361388  0.16683473  1
  Ni  Ni8  1  0.99810177  0.66682084  0.33181510  1
  Ni  Ni9  1  0.33340209  0.00018175  1.00005968  1
  Ni  Ni10  1  0.50058752  0.16681717  0.16704123  1
  Ni  Ni11  1  0.33545381  0.00018175  0.33180856  1
  Ni  Ni12  1  0.33422455  0.33218032  0.00082962  1
  Ni  Ni13  1  0.50042002  0.50018175  0.16681426  1
  Ni  Ni14  1  0.33537372  0.33326398  0.33207525  1
  Ni  Ni15  1  0.33422455  0.66818317  0.00082962  1
  Ni  Ni16  1  0.50058752  0.83354633  0.16704123  1
  Ni  Ni17  1  0.33537372  0.66709952  0.33207525  1
  Ni  Ni18  1  0.66674627  0.00018175  0.00031765  1
  Ni  Ni19  1  0.83323924  0.16657848  0.16703652  1
  Ni  Ni20  1  0.66678187  0.00018175  0.33378652  1
  Ni  Ni21  1  0.66710365  0.33334061  0.99969256  1
  Ni  Ni22  1  0.83316182  0.50018175  0.16681699  1
  Ni  Ni23  1  0.66709654  0.33340730  0.33412365  1
  Ni  Ni24  1  0.66710365  0.66702289  0.99969256  1
  Ni  Ni25  1  0.83323924  0.83378502  0.16703652  1
  Ni  Ni26  1  0.66709654  0.66695619  0.33412365  1
  Cr  Cr27  1  0.16699483  0.16696262  0.50031236  1
  Fe  Fe28  1  0.99788361  0.00018175  0.66859814  1
  Ni  Ni29  1  0.16689425  0.16520589  0.83331220  1
  Cr  Cr30  1  0.16711984  0.50018175  0.49980886  1
  Ni  Ni31  1  0.99708964  0.33325244  0.66762069  1
  Cr  Cr32  1  0.16715881  0.50018175  0.83344775  1
  Cr  Cr33  1  0.16699483  0.83340088  0.50031236  1
  Ni  Ni34  1  0.99708964  0.66711106  0.66762069  1
  Ni  Ni35  1  0.16689425  0.83515761  0.83331220  1
  Ni  Ni36  1  0.50228352  0.16671028  0.50011658  1
  Ni  Ni37  1  0.33628570  0.00018175  0.66873418  1
  Ni  Ni38  1  0.50058045  0.16669931  0.83341927  1
  Ni  Ni39  1  0.50226795  0.50018175  0.50062829  1
  Ni  Ni40  1  0.33607888  0.33182875  0.66762688  1
  Ni  Ni41  1  0.50217208  0.50018175  0.83309821  1
  Ni  Ni42  1  0.50228352  0.83365321  0.50011658  1
  Ni  Ni43  1  0.33607888  0.66853475  0.66762688  1
  Ni  Ni44  1  0.50058045  0.83366419  0.83341927  1
  Ni  Ni45  1  0.83118988  0.16684706  0.50008658  1
  Ni  Ni46  1  0.66592524  0.00018175  0.66648727  1
  Ni  Ni47  1  0.83296552  0.16677424  0.83339127  1
  Ni  Ni48  1  0.83152190  0.50018175  0.50033120  1
  Ni  Ni49  1  0.66740073  0.33305362  0.66673082  1
  Ni  Ni50  1  0.83159663  0.50018175  0.83342400  1
  Ni  Ni51  1  0.83118988  0.83351643  0.50008658  1
  Ni  Ni52  1  0.66740073  0.66730988  0.66673082  1
  Ni  Ni53  1  0.83296552  0.83358926  0.83339127  1
" 