4030,Ni91Fe3Cr5_10,-237.445459340993, 172.823118792123,Ni91Fe3Cr5,"# generated using pymatgen
 data_Cr4FeNi49
_symmetry_space_group_name_H-M   'P 1'
_cell_length_a   7.46267212
_cell_length_b   7.46267212
_cell_length_c   10.55381213
_cell_angle_alpha   90.00000000
_cell_angle_beta   90.00000000
_cell_angle_gamma   90.00000000
_symmetry_Int_Tables_number   1
_chemical_formula_structural   Cr4FeNi49
_chemical_formula_sum   'Cr4 Fe1 Ni49'
_cell_volume   587.75736692
_cell_formula_units_Z   1
loop_
 _symmetry_equiv_pos_site_id
 _symmetry_equiv_pos_as_xyz
  1  'x, y, z'
loop_
 _atom_site_type_symbol
 _atom_site_label
 _atom_site_symmetry_multiplicity
 _atom_site_fract_x
 _atom_site_fract_y
 _atom_site_fract_z
 _atom_site_occupancy
  Ni  Ni0  1  0.99914701  0.00127579  0.00135211  1
  Ni  Ni1  1  0.16691968  0.16708951  0.16673316  1
  Ni  Ni2  1  0.99813317  0.00033373  0.33164377  1
  Ni  Ni3  1  0.00065728  0.33344193  0.99977432  1
  Ni  Ni4  1  0.16660907  0.50005668  0.16716093  1
  Ni  Ni5  1  0.99967091  0.33446377  0.33322461  1
  Ni  Ni6  1  0.99958078  0.66613538  0.00105376  1
  Ni  Ni7  1  0.16577369  0.83373047  0.16713513  1
  Ni  Ni8  1  0.99947737  0.66611864  0.33305009  1
  Ni  Ni9  1  0.33371327  0.00232053  0.99956880  1
  Ni  Ni10  1  0.50056750  0.16856736  0.16712737  1
  Ni  Ni11  1  0.33476139  0.00134219  0.33341235  1
  Ni  Ni12  1  0.33352973  0.33378159  0.00036805  1
  Ni  Ni13  1  0.50104466  0.49853094  0.16686720  1
  Ni  Ni14  1  0.33445028  0.33471341  0.33275337  1
  Ni  Ni15  1  0.33347608  0.66477323  1.00027187  1
  Cr  Cr16  1  0.50094614  0.83313441  0.16644679  1
  Ni  Ni17  1  0.33366782  0.66484287  0.33376498  1
  Ni  Ni18  1  0.66820359  0.00133543  0.99928465  1
  Ni  Ni19  1  0.83340281  0.16773050  0.16713640  1
  Ni  Ni20  1  0.66813850  0.00113067  0.33472871  1
  Ni  Ni21  1  0.66669449  0.33323150  1.00017395  1
  Ni  Ni22  1  0.83320999  0.49989474  0.16686072  1
  Ni  Ni23  1  0.66670928  0.33336645  0.33389654  1
  Ni  Ni24  1  0.66786093  0.66627110  0.99882083  1
  Ni  Ni25  1  0.83498438  0.83325709  0.16687310  1
  Ni  Ni26  1  0.66778582  0.66633745  0.33495153  1
  Cr  Cr27  1  0.16613084  0.16909715  0.50093951  1
  Ni  Ni28  1  0.99585335  0.00120933  0.66801481  1
  Ni  Ni29  1  0.16668694  0.16876271  0.83360087  1
  Ni  Ni30  1  0.16677352  0.50019548  0.50049890  1
  Ni  Ni31  1  0.99983503  0.33419229  0.66793846  1
  Ni  Ni32  1  0.16675319  0.49866823  0.83324672  1
  Cr  Cr33  1  0.16671188  0.83232978  0.50000737  1
  Ni  Ni34  1  0.99880946  0.66554814  0.66678420  1
  Cr  Cr35  1  0.16668033  0.83337367  0.83369092  1
  Ni  Ni36  1  0.50215866  0.16749197  0.50005045  1
  Fe  Fe37  1  0.33638459  0.00134887  0.66777100  1
  Ni  Ni38  1  0.50080058  0.16746388  0.83368089  1
  Ni  Ni39  1  0.50091080  0.50008937  0.49995050  1
  Ni  Ni40  1  0.33477015  0.33557624  0.66789253  1
  Ni  Ni41  1  0.50092307  0.50009753  0.83408861  1
  Ni  Ni42  1  0.50211466  0.83333153  0.50069275  1
  Ni  Ni43  1  0.33564485  0.66379236  0.66678803  1
  Ni  Ni44  1  0.50205349  0.83337566  0.83329606  1
  Ni  Ni45  1  0.83201477  0.16758002  0.50022206  1
  Ni  Ni46  1  0.66779856  0.00032196  0.66681643  1
  Ni  Ni47  1  0.83350808  0.16760248  0.83354291  1
  Ni  Ni48  1  0.83323036  0.49988199  0.50062617  1
  Ni  Ni49  1  0.66632461  0.33310481  0.66681138  1
  Ni  Ni50  1  0.83321707  0.49989119  0.83338618  1
  Ni  Ni51  1  0.83207322  0.83341679  0.50020387  1
  Ni  Ni52  1  0.66648130  0.66747947  0.66702208  1
  Ni  Ni53  1  0.83207155  0.83340026  0.83383176  1
" 