8834,Ni91Fe3Cr5_1,-237.43660138143, 171.763052466383,Ni91Fe3Cr5,"# generated using pymatgen
 data_Cr4FeNi49
_symmetry_space_group_name_H-M   'P 1'
_cell_length_a   7.46307851
_cell_length_b   7.46307851
_cell_length_c   10.55438685
_cell_angle_alpha   90.00000000
_cell_angle_beta   90.00000000
_cell_angle_gamma   90.00000000
_symmetry_Int_Tables_number   1
_chemical_formula_structural   Cr4FeNi49
_chemical_formula_sum   'Cr4 Fe1 Ni49'
_cell_volume   587.85339291
_cell_formula_units_Z   1
loop_
 _symmetry_equiv_pos_site_id
 _symmetry_equiv_pos_as_xyz
  1  'x, y, z'
loop_
 _atom_site_type_symbol
 _atom_site_label
 _atom_site_symmetry_multiplicity
 _atom_site_fract_x
 _atom_site_fract_y
 _atom_site_fract_z
 _atom_site_occupancy
  Ni  Ni0  1  0.99984843  1.00000583  0.00037274  1
  Ni  Ni1  1  0.16730632  0.16692519  0.16738712  1
  Ni  Ni2  1  0.00065147  0.00070941  0.33484371  1
  Ni  Ni3  1  0.99897911  0.33486480  0.00182522  1
  Ni  Ni4  1  0.16707372  0.50011117  0.16686275  1
  Ni  Ni5  1  0.00066349  0.33314047  0.33232540  1
  Ni  Ni6  1  0.00136645  0.66592594  0.99903423  1
  Ni  Ni7  1  0.16828327  0.83377320  0.16662568  1
  Ni  Ni8  1  0.00342670  0.66694013  0.33380276  1
  Ni  Ni9  1  0.33508359  0.99875348  0.00165654  1
  Ni  Ni10  1  0.49989565  0.16708847  0.16661258  1
  Ni  Ni11  1  0.33430931  0.99951519  0.33335000  1
  Ni  Ni12  1  0.33492860  0.33506746  0.00123739  1
  Ni  Ni13  1  0.50019242  0.50003139  0.16715263  1
  Ni  Ni14  1  0.33416814  0.33418578  0.33401503  1
  Ni  Ni15  1  0.33362808  0.66701802  1.00023547  1
  Ni  Ni16  1  0.49859918  0.83368592  0.16689625  1
  Ni  Ni17  1  0.33283050  0.66710235  0.33357145  1
  Ni  Ni18  1  0.66584417  0.00119648  0.99925630  1
  Ni  Ni19  1  0.83356542  0.16831812  0.16688719  1
  Ni  Ni20  1  0.66576495  0.00214204  0.33463368  1
  Ni  Ni21  1  0.66692822  0.33346731  1.00003472  1
  Ni  Ni22  1  0.83351015  0.49878643  0.16669442  1
  Ni  Ni23  1  0.66592136  0.33156201  0.33271952  1
  Ni  Ni24  1  0.66571344  0.66610188  1.00015173  1
  Cr  Cr25  1  0.83339246  0.83331374  0.16737097  1
  Fe  Fe26  1  0.66459764  0.66719433  0.33341858  1
  Ni  Ni27  1  0.16833935  0.16588502  0.49890664  1
  Ni  Ni28  1  0.99896669  0.99736285  0.66559052  1
  Cr  Cr29  1  0.16927756  0.16569132  0.83469945  1
  Ni  Ni30  1  0.16944121  0.50113695  0.49966619  1
  Cr  Cr31  1  0.99995038  0.33377777  0.66670480  1
  Ni  Ni32  1  0.16819608  0.50253896  0.83430062  1
  Ni  Ni33  1  0.16702073  0.83376706  0.50049090  1
  Ni  Ni34  1  0.00138562  0.66954043  0.66797778  1
  Ni  Ni35  1  0.16706287  0.83231766  0.83365467  1
  Ni  Ni36  1  0.49991669  0.16696627  0.50072055  1
  Ni  Ni37  1  0.33509453  0.99860803  0.66577252  1
  Ni  Ni38  1  0.50152517  0.16699269  0.83343330  1
  Ni  Ni39  1  0.49856551  0.50013747  0.50044884  1
  Ni  Ni40  1  0.33657792  0.33497973  0.66552390  1
  Ni  Ni41  1  0.50040624  0.50036331  0.83322390  1
  Ni  Ni42  1  0.50019200  0.83366276  0.49998987  1
  Ni  Ni43  1  0.33365920  0.66723289  0.66699222  1
  Ni  Ni44  1  0.50038927  0.83346182  0.83388608  1
  Ni  Ni45  1  0.83254727  0.16450689  0.49939786  1
  Ni  Ni46  1  0.66675428  1.00020111  0.66697468  1
  Ni  Ni47  1  0.83128755  0.16584804  0.83454790  1
  Cr  Cr48  1  0.83203788  0.50178044  0.49874943  1
  Ni  Ni49  1  0.66443812  0.33247649  0.66800231  1
  Ni  Ni50  1  0.83223411  0.50163657  0.83494789  1
  Ni  Ni51  1  0.83359171  0.83515365  0.50068529  1
  Ni  Ni52  1  0.66570326  0.66812367  0.66708842  1
  Ni  Ni53  1  0.83332604  0.83328304  0.83300887  1
" 