3634,Ni91Cr9_18,-202.881105996644, 188.175426411707,Ni91Cr9,"# generated using pymatgen
 data_Cr49Ni5
_symmetry_space_group_name_H-M   'P 1'
_cell_length_a   7.59405369
_cell_length_b   7.59405369
_cell_length_c   10.73961372
_cell_angle_alpha   90.00000000
_cell_angle_beta   90.00000000
_cell_angle_gamma   90.00000000
_symmetry_Int_Tables_number   1
_chemical_formula_structural   Cr49Ni5
_chemical_formula_sum   'Cr49 Ni5'
_cell_volume   619.34977896
_cell_formula_units_Z   1
loop_
 _symmetry_equiv_pos_site_id
 _symmetry_equiv_pos_as_xyz
  1  'x, y, z'
loop_
 _atom_site_type_symbol
 _atom_site_label
 _atom_site_symmetry_multiplicity
 _atom_site_fract_x
 _atom_site_fract_y
 _atom_site_fract_z
 _atom_site_occupancy
  Ni  Ni0  1  0.99154037  -0.00812634  -0.00811840  1
  Cr  Cr1  1  0.15716923  0.15705813  0.15717295  1
  Cr  Cr2  1  0.99108400  0.99028183  0.32558668  1
  Cr  Cr3  1  -0.00812505  0.32411125  0.99140557  1
  Cr  Cr4  1  0.15888261  0.49186992  0.15888334  1
  Cr  Cr5  1  -0.00778472  0.32589457  0.32485311  1
  Cr  Cr6  1  0.99129166  0.65905785  -0.00766522  1
  Cr  Cr7  1  0.15775333  0.82598523  0.15775229  1
  Cr  Cr8  1  0.99050767  0.65873728  0.32575609  1
  Cr  Cr9  1  0.32465490  0.99120813  0.99120542  1
  Cr  Cr10  1  0.49187531  0.15876547  0.15928212  1
  Cr  Cr11  1  0.32610263  -0.00688781  0.32540547  1
  Cr  Cr12  1  0.32457717  0.32457621  -0.00766494  1
  Cr  Cr13  1  0.49186842  0.49186982  0.15853331  1
  Cr  Cr14  1  0.32551825  0.32360971  0.32517677  1
  Cr  Cr15  1  0.32569927  0.65913031  0.99080680  1
  Cr  Cr16  1  0.49129104  0.82427867  0.15790593  1
  Cr  Cr17  1  0.32439419  0.65819082  0.32409423  1
  Cr  Cr18  1  0.65838713  0.99062556  0.99062773  1
  Cr  Cr19  1  0.82586868  0.15763625  0.15659419  1
  Cr  Cr20  1  0.65772597  0.99140569  0.32711574  1
  Cr  Cr21  1  0.65846162  0.32515365  -0.00824392  1
  Cr  Cr22  1  0.82416236  0.49128583  0.15830435  1
  Cr  Cr23  1  0.65717998  0.32418591  0.32540632  1
  Cr  Cr24  1  0.65792273  0.65913608  0.99120434  1
  Cr  Cr25  1  0.82586863  0.82599102  0.15815180  1
  Cr  Cr26  1  0.66001037  0.65932122  0.32482587  1
  Cr  Cr27  1  0.15923731  0.15802269  0.49151962  1
  Cr  Cr28  1  0.99090306  0.99080646  0.65757279  1
  Cr  Cr29  1  0.15664545  0.15723859  0.82622165  1
  Cr  Cr30  1  0.15932194  0.49264962  0.49264789  1
  Cr  Cr31  1  -0.00796754  0.32571180  0.65865497  1
  Cr  Cr32  1  0.15948292  0.49247057  0.82337849  1
  Cr  Cr33  1  0.15769010  0.82424148  0.49206895  1
  Cr  Cr34  1  -0.00804788  0.65839471  0.65682428  1
  Cr  Cr35  1  0.15997644  0.82520203  0.82508917  1
  Ni  Ni36  1  0.49195630  0.15827650  0.49134538  1
  Cr  Cr37  1  0.32687950  0.99089022  0.65830355  1
  Cr  Cr38  1  0.49221526  0.15732456  0.82469027  1
  Cr  Cr39  1  0.49090860  0.49102283  0.49206757  1
  Cr  Cr40  1  0.32517611  0.32505114  0.65740392  1
  Cr  Cr41  1  0.49108677  0.49409393  0.82430982  1
  Cr  Cr42  1  0.49195331  0.82528102  0.49246484  1
  Ni  Ni43  1  0.32580303  0.65894366  0.65937641  1
  Ni  Ni44  1  0.49061610  0.82380490  0.82423945  1
  Cr  Cr45  1  0.82364345  0.15697513  0.49186989  1
  Cr  Cr46  1  0.65713052  0.99081005  0.65717315  1
  Cr  Cr47  1  0.82605143  0.15781802  0.82644974  1
  Cr  Cr48  1  0.82468414  0.49257146  0.49151965  1
  Cr  Cr49  1  0.65770433  0.32400514  0.65775305  1
  Cr  Cr50  1  0.82434367  0.49076250  0.82508920  1
  Ni  Ni51  1  0.82493890  0.82528994  0.49134525  1
  Cr  Cr52  1  0.65779091  0.66009867  0.65888360  1
  Cr  Cr53  1  0.82442899  0.82633102  0.82582040  1
" 