900,Ni91Cr9_3,-202.846966592288, 186.968453332194,Ni91Cr9,"# generated using pymatgen
 data_Cr49Ni5
_symmetry_space_group_name_H-M   'P 1'
_cell_length_a   7.59397423
_cell_length_b   7.59397423
_cell_length_c   10.73950134
_cell_angle_alpha   90.00000000
_cell_angle_beta   90.00000000
_cell_angle_gamma   90.00000000
_symmetry_Int_Tables_number   1
_chemical_formula_structural   Cr49Ni5
_chemical_formula_sum   'Cr49 Ni5'
_cell_volume   619.33033766
_cell_formula_units_Z   1
loop_
 _symmetry_equiv_pos_site_id
 _symmetry_equiv_pos_as_xyz
  1  'x, y, z'
loop_
 _atom_site_type_symbol
 _atom_site_label
 _atom_site_symmetry_multiplicity
 _atom_site_fract_x
 _atom_site_fract_y
 _atom_site_fract_z
 _atom_site_occupancy
  Cr  Cr0  1  0.99067010  0.99108375  -0.00794135  1
  Cr  Cr1  1  0.15866576  0.15849093  0.15943838  1
  Cr  Cr2  1  -0.00767384  0.99038125  0.32496255  1
  Cr  Cr3  1  0.99151746  0.32532029  0.99157115  1
  Cr  Cr4  1  0.15997644  0.49215322  0.15681632  1
  Cr  Cr5  1  0.99159609  0.32557944  0.32459413  1
  Cr  Cr6  1  -0.00751871  0.65855829  -0.00795678  1
  Cr  Cr7  1  0.16049016  0.82431813  0.15728950  1
  Cr  Cr8  1  0.99097960  0.65897801  0.32450903  1
  Cr  Cr9  1  0.32704598  -0.00628204  0.99116485  1
  Ni  Ni10  1  0.49298702  0.15659658  0.15674290  1
  Cr  Cr11  1  0.32542923  -0.00662272  0.32515439  1
  Cr  Cr12  1  0.32714224  0.32369742  -0.00794532  1
  Cr  Cr13  1  0.49052054  0.49246504  0.15814863  1
  Cr  Cr14  1  0.32677721  0.32322266  0.32350369  1
  Ni  Ni15  1  0.32547916  0.65856630  -0.00823389  1
  Cr  Cr16  1  0.49167613  0.82559112  0.15693967  1
  Cr  Cr17  1  0.32435974  0.65834379  0.32527815  1
  Ni  Ni18  1  0.65505586  -0.00582203  -0.00827472  1
  Cr  Cr19  1  0.82326736  0.15726811  0.15760918  1
  Cr  Cr20  1  0.65716867  -0.00723031  0.32386433  1
  Cr  Cr21  1  0.65599432  0.32210009  -0.00794802  1
  Cr  Cr22  1  0.82461392  0.49078160  0.15865065  1
  Cr  Cr23  1  0.65649782  0.32446467  0.32343286  1
  Cr  Cr24  1  0.65874212  0.65851120  0.99120742  1
  Cr  Cr25  1  0.82295487  0.82669781  0.15732418  1
  Cr  Cr26  1  0.65962724  0.65759548  0.32664878  1
  Cr  Cr27  1  0.15653023  0.15970322  0.49258750  1
  Cr  Cr28  1  -0.00766461  0.99112154  0.65794394  1
  Cr  Cr29  1  0.15742082  0.15966436  0.82274501  1
  Cr  Cr30  1  0.15834271  0.48961670  0.49257537  1
  Ni  Ni31  1  -0.00830027  0.32519439  0.65798540  1
  Cr  Cr32  1  0.15894872  0.49114117  0.82550644  1
  Cr  Cr33  1  0.15954487  0.82563083  0.49127143  1
  Cr  Cr34  1  0.99097163  0.65809808  0.65837649  1
  Cr  Cr35  1  0.16041317  0.82415568  0.82649808  1
  Cr  Cr36  1  0.49205965  0.15811988  0.49129668  1
  Cr  Cr37  1  0.32587327  -0.00709292  0.65854349  1
  Ni  Ni38  1  0.49305146  0.15689755  0.82671590  1
  Cr  Cr39  1  0.49122107  0.49222090  0.49124523  1
  Cr  Cr40  1  0.32591542  0.32329181  0.65928624  1
  Cr  Cr41  1  0.49035145  0.49243970  0.82562098  1
  Cr  Cr42  1  0.49163312  0.82464495  0.49167233  1
  Cr  Cr43  1  0.32483195  0.65883026  0.65841892  1
  Cr  Cr44  1  0.49167775  0.82564577  0.82650241  1
  Cr  Cr45  1  0.82629941  0.15928639  0.49258230  1
  Cr  Cr46  1  0.65673391  -0.00769323  0.65981711  1
  Cr  Cr47  1  0.82432252  0.15825148  0.82473052  1
  Cr  Cr48  1  0.82536405  0.48918130  0.49258201  1
  Cr  Cr49  1  0.65736102  0.32455420  0.65935569  1
  Cr  Cr50  1  0.82583196  0.48958210  0.82351703  1
  Cr  Cr51  1  0.82375657  0.82646094  0.49127198  1
  Cr  Cr52  1  0.65914901  0.65808834  0.65705920  1
  Cr  Cr53  1  0.82303533  0.82687523  0.82646034  1
" 