2026,Ni91Cr9_17,-202.823994162771, 185.943408492195,Ni91Cr9,"# generated using pymatgen
 data_Cr49Ni5
_symmetry_space_group_name_H-M   'P 1'
_cell_length_a   7.60100642
_cell_length_b   7.60100642
_cell_length_c   10.74944637
_cell_angle_alpha   90.00000000
_cell_angle_beta   90.00000000
_cell_angle_gamma   90.00000000
_symmetry_Int_Tables_number   1
_chemical_formula_structural   Cr49Ni5
_chemical_formula_sum   'Cr49 Ni5'
_cell_volume   621.05247406
_cell_formula_units_Z   1
loop_
 _symmetry_equiv_pos_site_id
 _symmetry_equiv_pos_as_xyz
  1  'x, y, z'
loop_
 _atom_site_type_symbol
 _atom_site_label
 _atom_site_symmetry_multiplicity
 _atom_site_fract_x
 _atom_site_fract_y
 _atom_site_fract_z
 _atom_site_occupancy
  Cr  Cr0  1  -0.00819783  0.99017444  -0.00746374  1
  Cr  Cr1  1  0.15757920  0.15668866  0.15844623  1
  Cr  Cr2  1  -0.00796406  0.99041889  0.32376725  1
  Cr  Cr3  1  -0.00868645  0.32546529  0.99077297  1
  Cr  Cr4  1  0.15806795  0.49183344  0.15760319  1
  Cr  Cr5  1  0.99063914  0.32455764  0.32456256  1
  Cr  Cr6  1  -0.00727782  0.65791652  -0.00872794  1
  Ni  Ni7  1  0.15778091  0.82453688  0.15805315  1
  Cr  Cr8  1  -0.00793581  0.65858022  0.32377579  1
  Cr  Cr9  1  0.32458817  0.99113977  -0.00843516  1
  Cr  Cr10  1  0.49093283  0.15799386  0.15760553  1
  Cr  Cr11  1  0.32367129  0.99044986  0.32376209  1
  Cr  Cr12  1  0.32507411  0.32451099  0.98981825  1
  Cr  Cr13  1  0.49142278  0.49153940  0.15844708  1
  Cr  Cr14  1  0.32506916  0.32452164  0.32456671  1
  Cr  Cr15  1  0.32270691  0.65791844  -0.00842453  1
  Cr  Cr16  1  0.49012391  0.82403154  0.15794419  1
  Cr  Cr17  1  0.32360695  0.65858721  0.32376888  1
  Cr  Cr18  1  0.65717373  -0.00743009  0.98980639  1
  Cr  Cr19  1  0.82505411  0.15799345  0.15794408  1
  Cr  Cr20  1  0.65785437  -0.00810716  0.32522770  1
  Cr  Cr21  1  0.65717901  0.32357827  -0.00858927  1
  Cr  Cr22  1  0.82407521  0.49105146  0.15794517  1
  Cr  Cr23  1  0.65785430  0.32448554  0.32392064  1
  Cr  Cr24  1  0.65813460  0.65742329  0.99107099  1
  Cr  Cr25  1  0.82535425  0.82452186  0.15744176  1
  Cr  Cr26  1  0.65789020  0.65718569  0.32522768  1
  Cr  Cr27  1  0.15758298  0.15919184  0.49222509  1
  Cr  Cr28  1  0.99095954  -0.00817030  0.65727335  1
  Cr  Cr29  1  0.15873565  0.16033475  0.82291350  1
  Cr  Cr30  1  0.15806142  0.48936608  0.49304862  1
  Ni  Ni31  1  -0.00642103  0.32539791  0.65850416  1
  Ni  Ni32  1  0.15801260  0.48940853  0.82289090  1
  Cr  Cr33  1  0.15806652  0.82500958  0.49047264  1
  Cr  Cr34  1  -0.00810091  0.65626763  0.65852055  1
  Cr  Cr35  1  0.15789643  0.82368187  0.82514264  1
  Cr  Cr36  1  0.49007634  0.15824617  0.49160049  1
  Cr  Cr37  1  0.32541781  -0.00721769  0.65822608  1
  Ni  Ni38  1  0.49033488  0.15876132  0.82378757  1
  Cr  Cr39  1  0.49056454  0.49128327  0.49076886  1
  Ni  Ni40  1  0.32288637  0.32452871  0.65937498  1
  Cr  Cr41  1  0.48941420  0.49014832  0.82435399  1
  Cr  Cr42  1  0.49152674  0.82403259  0.49110228  1
  Cr  Cr43  1  0.32354010  0.65626455  0.65822590  1
  Cr  Cr44  1  0.49169296  0.82537142  0.82451529  1
  Cr  Cr45  1  0.82590681  0.15824860  0.49126495  1
  Cr  Cr46  1  0.65719315  -0.00803128  0.65851535  1
  Cr  Cr47  1  0.82458529  0.15807296  0.82436069  1
  Cr  Cr48  1  0.82493597  0.49079333  0.49127140  1
  Cr  Cr49  1  0.65719213  0.32359660  0.65821437  1
  Cr  Cr50  1  0.82625300  0.49096125  0.82435414  1
  Cr  Cr51  1  0.82396982  0.82451720  0.49160279  1
  Cr  Cr52  1  0.65813040  0.65800878  0.65727139  1
  Cr  Cr53  1  0.82397187  0.82451568  0.82451711  1
" 