6916,Ni91Fe3Cr5_12,-237.44155847864, 173.875888312739,Ni91Fe3Cr5,"# generated using pymatgen
 data_Cr4FeNi49
_symmetry_space_group_name_H-M   'P 1'
_cell_length_a   7.46307013
_cell_length_b   7.46307013
_cell_length_c   10.55437500
_cell_angle_alpha   90.00000000
_cell_angle_beta   90.00000000
_cell_angle_gamma   90.00000000
_symmetry_Int_Tables_number   1
_chemical_formula_structural   Cr4FeNi49
_chemical_formula_sum   'Cr4 Fe1 Ni49'
_cell_volume   587.85141300
_cell_formula_units_Z   1
loop_
 _symmetry_equiv_pos_site_id
 _symmetry_equiv_pos_as_xyz
  1  'x, y, z'
loop_
 _atom_site_type_symbol
 _atom_site_label
 _atom_site_symmetry_multiplicity
 _atom_site_fract_x
 _atom_site_fract_y
 _atom_site_fract_z
 _atom_site_occupancy
  Ni  Ni0  1  0.99924261  0.00091293  0.99928759  1
  Ni  Ni1  1  0.16578180  0.16732870  0.16600072  1
  Ni  Ni2  1  0.99927331  1.00008064  0.33446855  1
  Ni  Ni3  1  0.00033849  0.33367575  0.00126481  1
  Ni  Ni4  1  0.16426464  0.49954387  0.16602643  1
  Fe  Fe5  1  0.99892771  0.33339701  0.33368034  1
  Ni  Ni6  1  0.99919269  0.66620301  0.99949192  1
  Cr  Cr7  1  0.16737718  0.83351476  0.16673278  1
  Ni  Ni8  1  0.99920997  0.66693068  0.33426540  1
  Ni  Ni9  1  0.33432029  0.00140765  1.00002755  1
  Ni  Ni10  1  0.50135664  0.16455879  0.16596807  1
  Ni  Ni11  1  0.33393560  1.00003583  0.33428872  1
  Ni  Ni12  1  0.33253723  0.33253139  0.99905193  1
  Cr  Cr13  1  0.50127892  0.50178869  0.16552349  1
  Cr  Cr14  1  0.33321604  0.33251016  0.33461698  1
  Ni  Ni15  1  0.33317067  0.66688543  0.99884219  1
  Ni  Ni16  1  0.50204847  0.83536434  0.16736372  1
  Ni  Ni17  1  0.33284979  0.66814773  0.33541639  1
  Ni  Ni18  1  0.66725544  1.00025378  0.00068310  1
  Ni  Ni19  1  0.83356357  0.16693004  0.16710342  1
  Ni  Ni20  1  0.66756784  0.00052379  0.33347271  1
  Ni  Ni21  1  0.66789713  0.33256865  0.99965943  1
  Ni  Ni22  1  0.83500702  0.50006467  0.16714224  1
  Ni  Ni23  1  0.66881390  0.33261193  0.33429480  1
  Ni  Ni24  1  0.66840310  0.66796655  0.99958893  1
  Ni  Ni25  1  0.83210500  0.83375394  0.16679722  1
  Ni  Ni26  1  0.66867828  0.66768372  0.33453010  1
  Ni  Ni27  1  0.16589701  0.16568395  0.50123617  1
  Ni  Ni28  1  1.00026189  0.99986777  0.66700222  1
  Ni  Ni29  1  0.16663298  0.16695538  0.83360478  1
  Ni  Ni30  1  0.16597920  0.50135685  0.50102874  1
  Ni  Ni31  1  0.00196868  0.33375267  0.66604457  1
  Ni  Ni32  1  0.16680859  0.50008660  0.83384661  1
  Ni  Ni33  1  0.16683775  0.83378738  0.50034248  1
  Ni  Ni34  1  0.00026725  0.66717524  0.66700044  1
  Ni  Ni35  1  0.16703973  0.83377206  0.83340640  1
  Ni  Ni36  1  0.50039987  0.16500119  0.50021009  1
  Ni  Ni37  1  0.33335467  0.00036239  0.66642274  1
  Ni  Ni38  1  0.49938793  0.16590565  0.83470818  1
  Ni  Ni39  1  0.50039732  0.50216619  0.50061172  1
  Ni  Ni40  1  0.33187573  0.33358605  0.66719522  1
  Ni  Ni41  1  0.49938927  0.50130198  0.83429559  1
  Ni  Ni42  1  0.50026256  0.83361174  0.49959642  1
  Ni  Ni43  1  0.33318214  0.66685844  0.66643295  1
  Ni  Ni44  1  0.50017208  0.83357865  0.83386035  1
  Ni  Ni45  1  0.83452043  0.16592827  0.49932209  1
  Ni  Ni46  1  0.66718853  0.99861895  0.66666171  1
  Ni  Ni47  1  0.83478991  0.16617296  0.83445865  1
  Ni  Ni48  1  0.83438788  0.50108681  0.49908349  1
  Cr  Cr49  1  0.66655797  0.33360449  0.66706654  1
  Ni  Ni50  1  0.83460034  0.50085803  0.83470807  1
  Ni  Ni51  1  0.83367759  0.83377191  0.50040200  1
  Ni  Ni52  1  0.66735382  0.66858962  0.66665858  1
  Ni  Ni53  1  0.83358534  0.83377412  0.83359342  1
" 