158,Ni91Fe3Cr5_5,-237.471590805288, 174.229499792754,Ni91Fe3Cr5,"# generated using pymatgen
 data_Cr4FeNi49
_symmetry_space_group_name_H-M   'P 1'
_cell_length_a   7.46264339
_cell_length_b   7.46264339
_cell_length_c   10.55377149
_cell_angle_alpha   90.00000000
_cell_angle_beta   90.00000000
_cell_angle_gamma   90.00000000
_symmetry_Int_Tables_number   1
_chemical_formula_structural   Cr4FeNi49
_chemical_formula_sum   'Cr4 Fe1 Ni49'
_cell_volume   587.75057750
_cell_formula_units_Z   1
loop_
 _symmetry_equiv_pos_site_id
 _symmetry_equiv_pos_as_xyz
  1  'x, y, z'
loop_
 _atom_site_type_symbol
 _atom_site_label
 _atom_site_symmetry_multiplicity
 _atom_site_fract_x
 _atom_site_fract_y
 _atom_site_fract_z
 _atom_site_occupancy
  Ni  Ni0  1  0.00069127  0.00268363  1.00029404  1
  Ni  Ni1  1  0.16708960  0.16877294  0.16779422  1
  Ni  Ni2  1  0.99954827  0.00148205  0.33471916  1
  Ni  Ni3  1  0.00053727  0.33336592  1.00028240  1
  Ni  Ni4  1  0.16709390  0.49861696  0.16689822  1
  Ni  Ni5  1  0.99925057  0.33247778  0.33243797  1
  Ni  Ni6  1  1.00010397  0.66485325  0.00047941  1
  Cr  Cr7  1  0.16696122  0.83314442  0.16677606  1
  Ni  Ni8  1  0.99991162  0.66688977  0.33355260  1
  Ni  Ni9  1  0.33433137  0.00151683  0.99915410  1
  Ni  Ni10  1  0.50063765  0.16715261  0.16710262  1
  Ni  Ni11  1  0.33440106  0.00132600  0.33471792  1
  Ni  Ni12  1  0.33329097  0.33337450  0.00052264  1
  Ni  Ni13  1  0.49900656  0.49869717  0.16656840  1
  Ni  Ni14  1  0.33456971  0.33245797  0.33240383  1
  Ni  Ni15  1  0.33488946  0.66599633  0.99936326  1
  Ni  Ni16  1  0.50085713  0.83505460  0.16610068  1
  Ni  Ni17  1  0.33405652  0.66706813  0.33352579  1
  Ni  Ni18  1  0.66584116  0.00115164  0.00168407  1
  Ni  Ni19  1  0.83315963  0.16697190  0.16687379  1
  Ni  Ni20  1  0.66695122  0.00186061  0.33331569  1
  Ni  Ni21  1  0.66705556  0.33390258  1.00026572  1
  Ni  Ni22  1  0.83478114  0.49886856  0.16633978  1
  Ni  Ni23  1  0.66708989  0.33207118  0.33380112  1
  Ni  Ni24  1  0.66586212  0.66583485  0.00123606  1
  Ni  Ni25  1  0.83312870  0.83505676  0.16654414  1
  Cr  Cr26  1  0.66695519  0.66696853  0.33385100  1
  Fe  Fe27  1  0.16716841  0.16587549  0.50033413  1
  Ni  Ni28  1  0.00145031  0.00139281  0.66592111  1
  Ni  Ni29  1  0.16713759  0.16713985  0.83297190  1
  Cr  Cr30  1  0.16746368  0.50082156  0.49953253  1
  Ni  Ni31  1  0.99928539  0.33258323  0.66817089  1
  Ni  Ni32  1  0.16714066  0.50033092  0.83409801  1
  Ni  Ni33  1  0.16692733  0.83448127  0.50055277  1
  Ni  Ni34  1  1.00021883  0.66688397  0.66682491  1
  Ni  Ni35  1  0.16853227  0.83337689  0.83324469  1
  Ni  Ni36  1  0.50139197  0.16703520  0.50010446  1
  Ni  Ni37  1  0.33350090  1.00025283  0.66700899  1
  Ni  Ni38  1  0.50058231  0.16713997  0.83366556  1
  Ni  Ni39  1  0.50040965  0.49841790  0.50121201  1
  Ni  Ni40  1  0.33456853  0.33258415  0.66795426  1
  Ni  Ni41  1  0.49994881  0.49971270  0.83310644  1
  Ni  Ni42  1  0.49891720  0.83535857  0.50122104  1
  Ni  Ni43  1  0.33472353  0.66794917  0.66789090  1
  Ni  Ni44  1  0.49837718  0.83403558  0.83356732  1
  Ni  Ni45  1  0.83242716  0.16685851  0.50033221  1
  Ni  Ni46  1  0.66594919  0.00112505  0.66596247  1
  Ni  Ni47  1  0.83316478  0.16866242  0.83366927  1
  Ni  Ni48  1  0.83350037  0.49858500  0.50143317  1
  Ni  Ni49  1  0.66703674  0.33375617  0.66680326  1
  Ni  Ni50  1  0.83379229  0.49828616  0.83310869  1
  Ni  Ni51  1  0.83503286  0.83535631  0.50078385  1
  Ni  Ni52  1  0.66591240  0.66599498  0.66585279  1
  Cr  Cr53  1  0.83332147  0.83432042  0.83400225  1
" 