5807,Ni91Cr9_11,-202.829686610782, 186.103195456599,Ni91Cr9,"# generated using pymatgen
 data_Cr49Ni5
_symmetry_space_group_name_H-M   'P 1'
_cell_length_a   7.59297642
_cell_length_b   7.59297642
_cell_length_c   10.73809023
_cell_angle_alpha   90.00000000
_cell_angle_beta   90.00000000
_cell_angle_gamma   90.00000000
_symmetry_Int_Tables_number   1
_chemical_formula_structural   Cr49Ni5
_chemical_formula_sum   'Cr49 Ni5'
_cell_volume   619.08624034
_cell_formula_units_Z   1
loop_
 _symmetry_equiv_pos_site_id
 _symmetry_equiv_pos_as_xyz
  1  'x, y, z'
loop_
 _atom_site_type_symbol
 _atom_site_label
 _atom_site_symmetry_multiplicity
 _atom_site_fract_x
 _atom_site_fract_y
 _atom_site_fract_z
 _atom_site_occupancy
  Cr  Cr0  1  0.99043208  -0.00785661  0.99086220  1
  Cr  Cr1  1  0.15894255  0.16055271  0.15828566  1
  Cr  Cr2  1  -0.00795643  -0.00731462  0.32459938  1
  Cr  Cr3  1  0.99064724  0.32456851  0.99168305  1
  Cr  Cr4  1  0.15792496  0.48930991  0.15774856  1
  Ni  Ni5  1  0.99164452  0.32510559  0.32509707  1
  Cr  Cr6  1  -0.00791000  0.65857428  0.99168257  1
  Cr  Cr7  1  0.15837665  0.82514399  0.15714978  1
  Cr  Cr8  1  -0.00764433  0.65790272  0.32459229  1
  Cr  Cr9  1  0.32493101  -0.00803203  -0.00677630  1
  Cr  Cr10  1  0.49040424  0.15921262  0.15731402  1
  Cr  Cr11  1  0.32464391  0.99118164  0.32541827  1
  Ni  Ni12  1  0.32602314  0.32620765  0.99036545  1
  Cr  Cr13  1  0.49215817  0.49132552  0.15752428  1
  Cr  Cr14  1  0.32466200  0.32551446  0.32498434  1
  Cr  Cr15  1  0.32541758  0.65630123  0.99086642  1
  Cr  Cr16  1  0.49331212  0.82455050  0.15965105  1
  Cr  Cr17  1  0.32567586  0.65836825  0.32540719  1
  Cr  Cr18  1  0.65979297  -0.00658153  0.99123743  1
  Cr  Cr19  1  0.82559445  0.15967205  0.15876362  1
  Cr  Cr20  1  0.65837947  -0.00810916  0.32458708  1
  Cr  Cr21  1  0.65748428  0.32496621  0.98922529  1
  Cr  Cr22  1  0.82508628  0.49212301  0.16138490  1
  Cr  Cr23  1  0.65899208  0.32556432  0.32539303  1
  Cr  Cr24  1  0.65778909  0.65691109  0.99164303  1
  Cr  Cr25  1  0.82356102  0.82346083  0.15883343  1
  Ni  Ni26  1  0.65844378  0.65802032  0.32512566  1
  Cr  Cr27  1  0.15801174  0.15980687  0.49085334  1
  Cr  Cr28  1  0.99072212  -0.00741346  0.65971806  1
  Cr  Cr29  1  0.15863499  0.15920856  0.82577113  1
  Cr  Cr30  1  0.15678322  0.49017032  0.49121416  1
  Cr  Cr31  1  0.99015185  0.32445517  0.65812792  1
  Cr  Cr32  1  0.15964088  0.49035007  0.82586243  1
  Cr  Cr33  1  0.15811387  0.82517347  0.49328327  1
  Cr  Cr34  1  -0.00750861  0.65815785  0.65882031  1
  Cr  Cr35  1  0.15865406  0.82536164  0.82472060  1
  Cr  Cr36  1  0.49144802  0.15814671  0.49168636  1
  Cr  Cr37  1  0.32488786  0.99145079  0.65642070  1
  Cr  Cr38  1  0.49079685  0.15918462  0.82585965  1
  Cr  Cr39  1  0.49315474  0.49225186  0.49165401  1
  Cr  Cr40  1  0.32663622  0.32654207  0.65888695  1
  Ni  Ni41  1  0.49068312  0.49025223  0.82634632  1
  Cr  Cr42  1  0.49345278  0.82477070  0.49088852  1
  Cr  Cr43  1  0.32541101  0.65700470  0.65893860  1
  Cr  Cr44  1  0.49191816  0.82437166  0.82472842  1
  Cr  Cr45  1  0.82565801  0.15950024  0.49158600  1
  Cr  Cr46  1  0.65948295  -0.00609351  0.65933013  1
  Ni  Ni47  1  0.82504791  0.15891254  0.82500206  1
  Cr  Cr48  1  0.82533462  0.49213551  0.48912295  1
  Cr  Cr49  1  0.65826865  0.32488951  0.66068501  1
  Cr  Cr50  1  0.82449567  0.49147207  0.82475898  1
  Cr  Cr51  1  0.82365271  0.82356124  0.49135852  1
  Cr  Cr52  1  0.65731890  0.65639896  0.65888424  1
  Cr  Cr53  1  0.82454649  0.82554163  0.82505008  1
" 