2728,Ni91Fe3Cr5_0,-237.481664913955, 173.352614943664,Ni91Fe3Cr5,"# generated using pymatgen
 data_Cr4FeNi49
_symmetry_space_group_name_H-M   'P 1'
_cell_length_a   7.46269333
_cell_length_b   7.46269333
_cell_length_c   10.55384211
_cell_angle_alpha   90.00000000
_cell_angle_beta   90.00000000
_cell_angle_gamma   90.00000000
_symmetry_Int_Tables_number   1
_chemical_formula_structural   Cr4FeNi49
_chemical_formula_sum   'Cr4 Fe1 Ni49'
_cell_volume   587.76237615
_cell_formula_units_Z   1
loop_
 _symmetry_equiv_pos_site_id
 _symmetry_equiv_pos_as_xyz
  1  'x, y, z'
loop_
 _atom_site_type_symbol
 _atom_site_label
 _atom_site_symmetry_multiplicity
 _atom_site_fract_x
 _atom_site_fract_y
 _atom_site_fract_z
 _atom_site_occupancy
  Ni  Ni0  1  0.00146034  0.99894435  0.99941911  1
  Ni  Ni1  1  0.16752463  0.16595907  0.16830109  1
  Ni  Ni2  1  0.00135459  0.99884765  0.33475193  1
  Ni  Ni3  1  0.99957738  0.33458559  0.99961005  1
  Ni  Ni4  1  0.16608735  0.50147204  0.16713541  1
  Ni  Ni5  1  0.00211627  0.33374924  0.33338325  1
  Ni  Ni6  1  1.00004901  0.66745334  0.00050953  1
  Ni  Ni7  1  0.16721593  0.83349759  0.16696921  1
  Ni  Ni8  1  0.99931867  0.66827441  0.33254016  1
  Ni  Ni9  1  0.33331266  0.99864402  0.00051700  1
  Ni  Ni10  1  0.49844701  0.16487799  0.16664197  1
  Ni  Ni11  1  0.33347438  1.00020146  0.33340694  1
  Cr  Cr12  1  0.33382948  0.33336275  0.00083156  1
  Ni  Ni13  1  0.50012508  0.50262844  0.16719317  1
  Ni  Ni14  1  0.33284398  0.33262426  0.33272697  1
  Ni  Ni15  1  0.33361464  0.66890602  1.00028643  1
  Ni  Ni16  1  0.50000211  0.83331152  0.16662443  1
  Ni  Ni17  1  0.33440364  0.66806977  0.33251055  1
  Ni  Ni18  1  0.66600723  0.99896835  0.99923380  1
  Cr  Cr19  1  0.83445641  0.16547213  0.16507894  1
  Ni  Ni20  1  0.66599313  0.99736061  0.33455367  1
  Ni  Ni21  1  0.66747781  0.33485880  0.99916214  1
  Ni  Ni22  1  0.83464277  0.50285216  0.16610021  1
  Cr  Cr23  1  0.66582746  0.33477080  0.33460121  1
  Ni  Ni24  1  0.66717507  0.66700293  0.00074977  1
  Ni  Ni25  1  0.83364329  0.83169834  0.16686412  1
  Ni  Ni26  1  0.66718281  0.66887803  0.33364129  1
  Ni  Ni27  1  0.16695524  0.16539331  0.49988646  1
  Ni  Ni28  1  0.00037440  0.99999404  0.66670863  1
  Ni  Ni29  1  0.16586124  0.16521161  0.83269552  1
  Cr  Cr30  1  0.16747062  0.50075888  0.50095820  1
  Ni  Ni31  1  0.99919176  0.33254030  0.66785399  1
  Fe  Fe32  1  0.16618357  0.50133518  0.83301961  1
  Ni  Ni33  1  0.16727043  0.83526498  0.50033424  1
  Ni  Ni34  1  0.99899613  0.66841205  0.66789386  1
  Ni  Ni35  1  0.16720082  0.83428181  0.83355488  1
  Ni  Ni36  1  0.49915075  0.16594167  0.50134964  1
  Ni  Ni37  1  0.33339617  0.00031057  0.66693889  1
  Ni  Ni38  1  0.50094187  0.16629845  0.83292598  1
  Ni  Ni39  1  0.50091273  0.50151960  0.50118459  1
  Ni  Ni40  1  0.33480650  0.33232287  0.66741004  1
  Ni  Ni41  1  0.50205970  0.50153547  0.83244405  1
  Ni  Ni42  1  0.49999451  0.83338246  0.50043070  1
  Ni  Ni43  1  0.33464923  0.66829580  0.66814393  1
  Ni  Ni44  1  0.49981207  0.83306760  0.83379853  1
  Ni  Ni45  1  0.83477219  0.16610442  0.50179514  1
  Ni  Ni46  1  0.66709690  1.00014033  0.66704105  1
  Ni  Ni47  1  0.83403562  0.16740495  0.83361055  1
  Ni  Ni48  1  0.83301911  0.50122754  0.50098624  1
  Ni  Ni49  1  0.66689480  0.33369959  0.66713976  1
  Ni  Ni50  1  0.83285191  0.50020912  0.83381583  1
  Ni  Ni51  1  0.83361968  0.83354165  0.50022151  1
  Ni  Ni52  1  0.66721671  0.66701388  0.66645539  1
  Ni  Ni53  1  0.83385602  0.83327398  0.83381266  1
" 