2239,Ni91Fe3Cr5_4,-237.414329868511, 172.319121407318,Ni91Fe3Cr5,"# generated using pymatgen
 data_Cr4FeNi49
_symmetry_space_group_name_H-M   'P 1'
_cell_length_a   7.46369958
_cell_length_b   7.46369958
_cell_length_c   10.55526517
_cell_angle_alpha   90.00000000
_cell_angle_beta   90.00000000
_cell_angle_gamma   90.00000000
_symmetry_Int_Tables_number   1
_chemical_formula_structural   Cr4FeNi49
_chemical_formula_sum   'Cr4 Fe1 Ni49'
_cell_volume   588.00016564
_cell_formula_units_Z   1
loop_
 _symmetry_equiv_pos_site_id
 _symmetry_equiv_pos_as_xyz
  1  'x, y, z'
loop_
 _atom_site_type_symbol
 _atom_site_label
 _atom_site_symmetry_multiplicity
 _atom_site_fract_x
 _atom_site_fract_y
 _atom_site_fract_z
 _atom_site_occupancy
  Ni  Ni0  1  0.99942383  0.00146580  0.99928411  1
  Ni  Ni1  1  0.16647313  0.16787958  0.16699406  1
  Ni  Ni2  1  0.00024267  0.00153968  0.33466354  1
  Ni  Ni3  1  0.00023472  0.33307542  0.00069274  1
  Ni  Ni4  1  0.16501871  0.49870601  0.16698220  1
  Ni  Ni5  1  0.99992698  0.33291488  0.33340490  1
  Ni  Ni6  1  0.00053091  0.66607752  0.99963211  1
  Cr  Cr7  1  0.16634167  0.83389150  0.16684623  1
  Ni  Ni8  1  0.99864693  0.66621035  0.33420543  1
  Ni  Ni9  1  0.33428699  0.00159717  0.99928543  1
  Ni  Ni10  1  0.50045516  0.16547803  0.16673070  1
  Ni  Ni11  1  0.33388071  0.00157297  0.33445230  1
  Ni  Ni12  1  0.33135294  0.33077945  0.00059989  1
  Cr  Cr13  1  0.49855169  0.49905634  0.16752045  1
  Ni  Ni14  1  0.33285361  0.33169026  0.33437679  1
  Ni  Ni15  1  0.33122507  0.66830137  0.99944262  1
  Ni  Ni16  1  0.50077097  0.83636646  0.16786727  1
  Ni  Ni17  1  0.33398076  0.66748510  0.33528562  1
  Ni  Ni18  1  0.66689815  0.00181308  0.00109066  1
  Ni  Ni19  1  0.83383068  0.16663182  0.16694060  1
  Fe  Fe20  1  0.66702395  0.00082655  0.33404551  1
  Ni  Ni21  1  0.66913485  0.32991460  1.00006441  1
  Ni  Ni22  1  0.83582741  0.49902284  0.16758641  1
  Ni  Ni23  1  0.66790077  0.33338622  0.33429485  1
  Cr  Cr24  1  0.66935336  0.66899266  0.99983876  1
  Ni  Ni25  1  0.83341749  0.83509674  0.16801904  1
  Ni  Ni26  1  0.66795099  0.66730205  0.33452190  1
  Ni  Ni27  1  0.16639100  0.16648513  0.50013398  1
  Ni  Ni28  1  0.00049563  0.00053086  0.66675534  1
  Ni  Ni29  1  0.16643530  0.16669674  0.83354577  1
  Ni  Ni30  1  0.16674940  0.50030417  0.49967477  1
  Ni  Ni31  1  0.00044412  0.33326112  0.66661577  1
  Ni  Ni32  1  0.16534019  0.50014109  0.83404922  1
  Ni  Ni33  1  0.16639440  0.83387321  0.50053261  1
  Ni  Ni34  1  1.00002323  0.66690687  0.66689177  1
  Ni  Ni35  1  0.16637153  0.83386725  0.83335554  1
  Ni  Ni36  1  0.50043924  0.16719329  0.50044431  1
  Ni  Ni37  1  0.33346620  0.00055826  0.66696988  1
  Ni  Ni38  1  0.50065768  0.16516644  0.83374429  1
  Ni  Ni39  1  0.50041644  0.49993321  0.50041520  1
  Ni  Ni40  1  0.33226356  0.33197214  0.66555389  1
  Cr  Cr41  1  0.49942632  0.49815308  0.83181411  1
  Ni  Ni42  1  0.50014425  0.83365510  0.50010436  1
  Ni  Ni43  1  0.33264081  0.66817788  0.66581617  1
  Ni  Ni44  1  0.49938796  0.83628682  0.83290664  1
  Ni  Ni45  1  0.83385810  0.16687413  0.50044174  1
  Ni  Ni46  1  0.66673118  1.00015828  0.66644273  1
  Ni  Ni47  1  0.83358140  0.16645507  0.83349483  1
  Ni  Ni48  1  0.83353361  0.49992914  0.50041749  1
  Ni  Ni49  1  0.66808451  0.33235079  0.66611808  1
  Ni  Ni50  1  0.83630463  0.49882028  0.83258461  1
  Ni  Ni51  1  0.83414755  0.83392075  0.50012218  1
  Ni  Ni52  1  0.66802389  0.66809151  0.66579758  1
  Ni  Ni53  1  0.83482428  0.83527448  0.83270017  1
" 