2798,Ni91Cr9_13,-202.802596576338, 186.139065847205,Ni91Cr9,"# generated using pymatgen
 data_Cr49Ni5
_symmetry_space_group_name_H-M   'P 1'
_cell_length_a   7.59530365
_cell_length_b   7.59530365
_cell_length_c   10.74138144
_cell_angle_alpha   90.00000000
_cell_angle_beta   90.00000000
_cell_angle_gamma   90.00000000
_symmetry_Int_Tables_number   1
_chemical_formula_structural   Cr49Ni5
_chemical_formula_sum   'Cr49 Ni5'
_cell_volume   619.65566068
_cell_formula_units_Z   1
loop_
 _symmetry_equiv_pos_site_id
 _symmetry_equiv_pos_as_xyz
  1  'x, y, z'
loop_
 _atom_site_type_symbol
 _atom_site_label
 _atom_site_symmetry_multiplicity
 _atom_site_fract_x
 _atom_site_fract_y
 _atom_site_fract_z
 _atom_site_occupancy
  Cr  Cr0  1  -0.00839389  -0.00740367  -0.00799243  1
  Cr  Cr1  1  0.15659285  0.15964808  0.15800013  1
  Cr  Cr2  1  0.99109463  -0.00817301  0.32402410  1
  Ni  Ni3  1  0.98904654  0.32494364  -0.00843339  1
  Cr  Cr4  1  0.15794350  0.49072660  0.15719504  1
  Cr  Cr5  1  0.99114745  0.32522141  0.32704113  1
  Cr  Cr6  1  -0.00805015  0.65818488  0.99073859  1
  Cr  Cr7  1  0.15805803  0.82433142  0.15904213  1
  Cr  Cr8  1  0.99043242  0.65766769  0.32678297  1
  Cr  Cr9  1  0.32464854  -0.00829674  0.99108761  1
  Cr  Cr10  1  0.49331580  0.16043136  0.15798204  1
  Cr  Cr11  1  0.32463449  -0.00739934  0.32458358  1
  Cr  Cr12  1  0.32605203  0.32589154  -0.00698132  1
  Ni  Ni13  1  0.49338052  0.49004438  0.15681574  1
  Cr  Cr14  1  0.32604597  0.32596951  0.32383060  1
  Cr  Cr15  1  0.32599197  0.65707848  -0.00692885  1
  Cr  Cr16  1  0.49181077  0.82339219  0.15901747  1
  Cr  Cr17  1  0.32605034  0.65609221  0.32211658  1
  Cr  Cr18  1  0.65838859  -0.00738021  -0.00841000  1
  Cr  Cr19  1  0.82482204  0.16037734  0.15587337  1
  Cr  Cr20  1  0.65893338  -0.00814827  0.32447077  1
  Ni  Ni21  1  0.65932920  0.32636760  -0.00696047  1
  Cr  Cr22  1  0.82404190  0.48966127  0.15657385  1
  Cr  Cr23  1  0.65752681  0.32648464  0.32560970  1
  Cr  Cr24  1  0.65672225  0.65676356  -0.00783828  1
  Cr  Cr25  1  0.82481961  0.82468571  0.15860066  1
  Cr  Cr26  1  0.65819694  0.65631866  0.32523583  1
  Cr  Cr27  1  0.15968545  0.15740626  0.49211969  1
  Cr  Cr28  1  -0.00780237  -0.00818757  0.65864127  1
  Cr  Cr29  1  0.15812311  0.15896835  0.82448538  1
  Cr  Cr30  1  0.15676983  0.49190033  0.49159944  1
  Cr  Cr31  1  0.99072740  0.32563119  0.65680235  1
  Cr  Cr32  1  0.15668013  0.49059456  0.82604242  1
  Cr  Cr33  1  0.15993627  0.82530395  0.49204219  1
  Cr  Cr34  1  0.99002038  0.65725531  0.65714867  1
  Cr  Cr35  1  0.15961894  0.82505969  0.82341762  1
  Cr  Cr36  1  0.49058601  0.15666145  0.49300652  1
  Ni  Ni37  1  0.32463116  0.99149180  0.65797800  1
  Cr  Cr38  1  0.49210663  0.15820222  0.82359265  1
  Cr  Cr39  1  0.49263467  0.49190138  0.49106984  1
  Cr  Cr40  1  0.32488154  0.32361482  0.65774400  1
  Cr  Cr41  1  0.49289070  0.49060462  0.82651122  1
  Cr  Cr42  1  0.49033506  0.82606382  0.49294555  1
  Cr  Cr43  1  0.32488785  0.65815953  0.65947838  1
  Cr  Cr44  1  0.49062878  0.82579252  0.82252588  1
  Cr  Cr45  1  0.82438007  0.15986420  0.49072594  1
  Cr  Cr46  1  0.65793464  -0.00821101  0.65861161  1
  Cr  Cr47  1  0.82442920  0.16100247  0.82832751  1
  Ni  Ni48  1  0.82477552  0.49160068  0.49170090  1
  Cr  Cr49  1  0.65904487  0.32594889  0.65687480  1
  Cr  Cr50  1  0.82508465  0.48944467  0.82638117  1
  Cr  Cr51  1  0.82437689  0.82326278  0.49072165  1
  Cr  Cr52  1  0.65972639  0.65694739  0.65716726  1
  Cr  Cr53  1  0.82439549  0.82430658  0.82533273  1
" 