6091,Ni91Fe3Cr5_8,-237.487322936175, 172.075208850828,Ni91Fe3Cr5,"# generated using pymatgen
 data_Cr4FeNi49
_symmetry_space_group_name_H-M   'P 1'
_cell_length_a   7.46310430
_cell_length_b   7.46310430
_cell_length_c   10.55442331
_cell_angle_alpha   90.00000000
_cell_angle_beta   90.00000000
_cell_angle_gamma   90.00000000
_symmetry_Int_Tables_number   1
_chemical_formula_structural   Cr4FeNi49
_chemical_formula_sum   'Cr4 Fe1 Ni49'
_cell_volume   587.85948601
_cell_formula_units_Z   1
loop_
 _symmetry_equiv_pos_site_id
 _symmetry_equiv_pos_as_xyz
  1  'x, y, z'
loop_
 _atom_site_type_symbol
 _atom_site_label
 _atom_site_symmetry_multiplicity
 _atom_site_fract_x
 _atom_site_fract_y
 _atom_site_fract_z
 _atom_site_occupancy
  Ni  Ni0  1  0.00040966  0.99997305  0.00030045  1
  Ni  Ni1  1  0.16814769  0.16529196  0.16572019  1
  Ni  Ni2  1  0.00049433  0.99867818  0.33376873  1
  Ni  Ni3  1  0.00045913  0.33347709  0.99996083  1
  Ni  Ni4  1  0.16682309  0.50149531  0.16595039  1
  Cr  Cr5  1  0.00237418  0.33242395  0.33234462  1
  Ni  Ni6  1  0.00061694  0.66732279  0.00046689  1
  Ni  Ni7  1  0.16691026  0.83408612  0.16690928  1
  Ni  Ni8  1  0.00156384  0.66937117  0.33252927  1
  Ni  Ni9  1  0.33354470  0.99987042  1.00002995  1
  Ni  Ni10  1  0.49902649  0.16441774  0.16615100  1
  Ni  Ni11  1  0.33376880  0.99962164  0.33342873  1
  Ni  Ni12  1  0.33259898  0.33279787  0.99979361  1
  Cr  Cr13  1  0.49921607  0.50108163  0.16668113  1
  Ni  Ni14  1  0.33243147  0.33256324  0.33469959  1
  Ni  Ni15  1  0.33267268  0.66815975  0.99901978  1
  Ni  Ni16  1  0.50002516  0.83527330  0.16612122  1
  Ni  Ni17  1  0.33274479  0.66862377  0.33465072  1
  Ni  Ni18  1  0.66684389  1.00004063  0.00033495  1
  Ni  Ni19  1  0.83359530  0.16419388  0.16471463  1
  Ni  Ni20  1  0.66649847  0.99814000  0.33358155  1
  Ni  Ni21  1  0.66773912  0.33261140  0.99939932  1
  Ni  Ni22  1  0.83474032  0.50260813  0.16441555  1
  Cr  Cr23  1  0.66606205  0.33096053  0.33374676  1
  Ni  Ni24  1  0.66756518  0.66830492  0.99924553  1
  Ni  Ni25  1  0.83387195  0.83397644  0.16735865  1
  Ni  Ni26  1  0.66653397  0.67069908  0.33360897  1
  Ni  Ni27  1  0.16814710  0.16526308  0.50149448  1
  Ni  Ni28  1  0.00052803  0.99988153  0.66675501  1
  Ni  Ni29  1  0.16754639  0.16599454  0.83360467  1
  Ni  Ni30  1  0.16957331  0.50145181  0.50119806  1
  Ni  Ni31  1  0.00136299  0.33269404  0.66830585  1
  Ni  Ni32  1  0.16755009  0.50078161  0.83359465  1
  Ni  Ni33  1  0.16689331  0.83406501  0.50029379  1
  Ni  Ni34  1  0.00145143  0.66811036  0.66778073  1
  Ni  Ni35  1  0.16603771  0.83405069  0.83362227  1
  Ni  Ni36  1  0.49895288  0.16565385  0.50084258  1
  Ni  Ni37  1  0.33360793  0.99992122  0.66728863  1
  Ni  Ni38  1  0.49994669  0.16753819  0.83391280  1
  Ni  Ni39  1  0.49782600  0.50118568  0.50114532  1
  Ni  Ni40  1  0.33353751  0.33350201  0.66640824  1
  Ni  Ni41  1  0.50013273  0.49955716  0.83321439  1
  Ni  Ni42  1  0.50001594  0.83393703  0.50079759  1
  Ni  Ni43  1  0.33341380  0.66737317  0.66711141  1
  Fe  Fe44  1  0.50014776  0.83409026  0.83367745  1
  Ni  Ni45  1  0.83356018  0.16303674  0.50269584  1
  Ni  Ni46  1  0.66666963  1.00007091  0.66677745  1
  Ni  Ni47  1  0.83327619  0.16594083  0.83329780  1
  Cr  Cr48  1  0.83348502  0.50295416  0.50249339  1
  Ni  Ni49  1  0.66593012  0.33258710  0.66782357  1
  Ni  Ni50  1  0.83313498  0.50096851  0.83392665  1
  Ni  Ni51  1  0.83386285  0.83545995  0.50010356  1
  Ni  Ni52  1  0.66584049  0.66828626  0.66790687  1
  Ni  Ni53  1  0.83455658  0.83384646  0.83326080  1
" 