7885,Ni91Fe3Cr5_9,-237.378458943829, 172.655463259142,Ni91Fe3Cr5,"# generated using pymatgen
 data_Cr4FeNi49
_symmetry_space_group_name_H-M   'P 1'
_cell_length_a   7.46252726
_cell_length_b   7.46252726
_cell_length_c   10.55360726
_cell_angle_alpha   90.00000000
_cell_angle_beta   90.00000000
_cell_angle_gamma   90.00000000
_symmetry_Int_Tables_number   1
_chemical_formula_structural   Cr4FeNi49
_chemical_formula_sum   'Cr4 Fe1 Ni49'
_cell_volume   587.72313881
_cell_formula_units_Z   1
loop_
 _symmetry_equiv_pos_site_id
 _symmetry_equiv_pos_as_xyz
  1  'x, y, z'
loop_
 _atom_site_type_symbol
 _atom_site_label
 _atom_site_symmetry_multiplicity
 _atom_site_fract_x
 _atom_site_fract_y
 _atom_site_fract_z
 _atom_site_occupancy
  Ni  Ni0  1  0.99863870  0.00206770  0.00194249  1
  Ni  Ni1  1  0.16718786  0.16653186  0.16687406  1
  Ni  Ni2  1  0.00043501  0.99996477  0.33342543  1
  Ni  Ni3  1  0.99949948  0.33274177  0.00112083  1
  Ni  Ni4  1  0.16821817  0.49971438  0.16753447  1
  Ni  Ni5  1  0.00200474  0.33385737  0.33338738  1
  Cr  Cr6  1  0.99987275  0.66613895  0.00052198  1
  Ni  Ni7  1  0.16713393  0.83466241  0.16767029  1
  Ni  Ni8  1  0.00044441  0.66708730  0.33379286  1
  Ni  Ni9  1  0.33533486  0.00058443  0.00186292  1
  Ni  Ni10  1  0.49923146  0.16676420  0.16588939  1
  Ni  Ni11  1  0.33335058  1.00022949  0.33368505  1
  Ni  Ni12  1  0.33455642  0.33430703  0.00108204  1
  Ni  Ni13  1  0.49940822  0.50068999  0.16583808  1
  Ni  Ni14  1  0.33187150  0.33368200  0.33360224  1
  Ni  Ni15  1  0.33586571  0.66601483  0.00082855  1
  Fe  Fe16  1  0.50031761  0.83358074  0.16693331  1
  Ni  Ni17  1  0.33316824  0.66699742  0.33350666  1
  Ni  Ni18  1  0.66693876  0.00076069  0.99997503  1
  Ni  Ni19  1  0.83448959  0.16567728  0.16565702  1
  Ni  Ni20  1  0.66712204  0.99866446  0.33368502  1
  Ni  Ni21  1  0.66685154  0.33327935  0.99991898  1
  Ni  Ni22  1  0.83328511  0.50074317  0.16686328  1
  Cr  Cr23  1  0.66698327  0.33344325  0.33402065  1
  Ni  Ni24  1  0.66537292  0.66687202  1.00020931  1
  Ni  Ni25  1  0.83351721  0.83448874  0.16771103  1
  Ni  Ni26  1  0.66729545  0.66856357  0.33350603  1
  Ni  Ni27  1  0.16717512  0.16675885  0.49995088  1
  Ni  Ni28  1  0.99863207  1.00013715  0.66553746  1
  Cr  Cr29  1  0.16691676  0.16809802  0.83400382  1
  Ni  Ni30  1  0.16718423  0.50029292  0.50031895  1
  Ni  Ni31  1  0.99949843  0.33466508  0.66639873  1
  Ni  Ni32  1  0.16799611  0.49969672  0.83304994  1
  Ni  Ni33  1  0.16694893  0.83385682  0.50041873  1
  Ni  Ni34  1  0.99967105  0.66610607  0.66620775  1
  Cr  Cr35  1  0.16758983  0.83318683  0.83261352  1
  Ni  Ni36  1  0.49922620  0.16613459  0.50140731  1
  Ni  Ni37  1  0.33526644  1.00029295  0.66536368  1
  Ni  Ni38  1  0.50213488  0.16712467  0.83361577  1
  Ni  Ni39  1  0.49940341  0.50109885  0.50122683  1
  Ni  Ni40  1  0.33438813  0.33449041  0.66622139  1
  Ni  Ni41  1  0.50057031  0.50050542  0.83384800  1
  Ni  Ni42  1  0.50025968  0.83367477  0.49990949  1
  Ni  Ni43  1  0.33405519  0.66612201  0.66657642  1
  Ni  Ni44  1  0.50214757  0.83327744  0.83431580  1
  Ni  Ni45  1  0.83450744  0.16590073  0.50117281  1
  Ni  Ni46  1  0.66700697  0.00046811  0.66725117  1
  Ni  Ni47  1  0.83181283  0.16688957  0.83408396  1
  Ni  Ni48  1  0.83432140  0.50132384  0.50099217  1
  Ni  Ni49  1  0.66702178  0.33345829  0.66738588  1
  Ni  Ni50  1  0.83234449  0.49970722  0.83305202  1
  Ni  Ni51  1  0.83369998  0.83368374  0.50037641  1
  Ni  Ni52  1  0.66718138  0.66698186  0.66719693  1
  Ni  Ni53  1  0.83099885  0.83431288  0.83281477  1
" 