2243,Ni91Cr9_4,-202.859793372533, 187.724295639507,Ni91Cr9,"# generated using pymatgen
 data_Cr49Ni5
_symmetry_space_group_name_H-M   'P 1'
_cell_length_a   7.59422381
_cell_length_b   7.59422381
_cell_length_c   10.73985431
_cell_angle_alpha   90.00000000
_cell_angle_beta   90.00000000
_cell_angle_gamma   90.00000000
_symmetry_Int_Tables_number   1
_chemical_formula_structural   Cr49Ni5
_chemical_formula_sum   'Cr49 Ni5'
_cell_volume   619.39140469
_cell_formula_units_Z   1
loop_
 _symmetry_equiv_pos_site_id
 _symmetry_equiv_pos_as_xyz
  1  'x, y, z'
loop_
 _atom_site_type_symbol
 _atom_site_label
 _atom_site_symmetry_multiplicity
 _atom_site_fract_x
 _atom_site_fract_y
 _atom_site_fract_z
 _atom_site_occupancy
  Cr  Cr0  1  0.99016646  0.99086940  -0.00837143  1
  Cr  Cr1  1  0.15904319  0.15834381  0.15899962  1
  Cr  Cr2  1  -0.00802993  0.99086497  0.32566448  1
  Cr  Cr3  1  -0.00763145  0.32610676  0.99013111  1
  Cr  Cr4  1  0.15782031  0.49320628  0.15824247  1
  Cr  Cr5  1  0.99139282  0.32513326  0.32543207  1
  Ni  Ni6  1  -0.00766063  0.65772513  0.99076907  1
  Cr  Cr7  1  0.15675934  0.82332701  0.15900165  1
  Ni  Ni8  1  -0.00827557  0.65834084  0.32502870  1
  Cr  Cr9  1  0.32578365  0.99134152  -0.00813955  1
  Cr  Cr10  1  0.49218363  0.15884644  0.15726966  1
  Cr  Cr11  1  0.32398274  0.99134266  0.32543256  1
  Cr  Cr12  1  0.32472819  0.32677493  -0.00813775  1
  Ni  Ni13  1  0.49162563  0.49133676  0.15858902  1
  Cr  Cr14  1  0.32570380  0.32580491  0.32370005  1
  Cr  Cr15  1  0.32425486  0.65676395  0.99127432  1
  Cr  Cr16  1  0.49218490  0.82511140  0.15726889  1
  Cr  Cr17  1  0.32522982  0.65773464  0.32428787  1
  Ni  Ni18  1  0.65851791  0.99154659  0.99137908  1
  Cr  Cr19  1  0.82365206  0.15778352  0.15726760  1
  Cr  Cr20  1  0.65892717  0.99134272  0.32502853  1
  Cr  Cr21  1  0.65778648  0.32457909  -0.00699626  1
  Cr  Cr22  1  0.82543440  0.49320834  0.15900163  1
  Cr  Cr23  1  0.65778341  0.32638148  0.32428631  1
  Cr  Cr24  1  0.65825804  0.65896141  -0.00758420  1
  Cr  Cr25  1  0.82593410  0.82388680  0.15727175  1
  Cr  Cr26  1  0.65826054  0.65715784  0.32487472  1
  Cr  Cr27  1  0.15888428  0.15818439  0.49139258  1
  Cr  Cr28  1  0.99162652  -0.00767413  0.65758725  1
  Cr  Cr29  1  0.15888442  0.15998696  0.82448836  1
  Cr  Cr30  1  0.15715157  0.49241929  0.49123968  1
  Cr  Cr31  1  -0.00781626  0.32481230  0.65931872  1
  Ni  Ni32  1  0.15725899  0.49251798  0.82570253  1
  Cr  Cr33  1  0.15773422  0.82427528  0.49024811  1
  Cr  Cr34  1  -0.00781593  0.65774257  0.65931668  1
  Cr  Cr35  1  0.15773467  0.82247614  0.82563159  1
  Cr  Cr36  1  0.49139303  0.15817757  0.49221129  1
  Cr  Cr37  1  0.32448480  0.99115646  0.65758748  1
  Cr  Cr38  1  0.49236841  0.15720242  0.82539972  1
  Cr  Cr39  1  0.49197061  0.49127058  0.49157568  1
  Cr  Cr40  1  0.32393500  0.32598688  0.65931692  1
  Cr  Cr41  1  0.49016902  0.49127054  0.82430600  1
  Cr  Cr42  1  0.49139261  0.82543260  0.49256620  1
  Cr  Cr43  1  0.32510277  0.65773608  0.65931818  1
  Cr  Cr44  1  0.49236924  0.82640818  0.82504547  1
  Cr  Cr45  1  0.82460299  0.15876234  0.49197953  1
  Cr  Cr46  1  0.65876915  0.99115757  0.65834595  1
  Cr  Cr47  1  0.82362649  0.15778497  0.82563267  1
  Cr  Cr48  1  0.82575919  0.49242015  0.49083486  1
  Cr  Cr49  1  0.65876302  0.32542982  0.65758753  1
  Cr  Cr50  1  0.82755996  0.49241980  0.82504423  1
  Cr  Cr51  1  0.82575369  0.82369729  0.49083426  1
  Cr  Cr52  1  0.65759362  0.65829282  0.65758731  1
  Cr  Cr53  1  0.82477423  0.82467683  0.82677542  1
" 