3569,Ni91Cr9_2,-202.809626534419, 186.247392502189,Ni91Cr9,"# generated using pymatgen
 data_Cr49Ni5
_symmetry_space_group_name_H-M   'P 1'
_cell_length_a   7.59684433
_cell_length_b   7.59684433
_cell_length_c   10.74356028
_cell_angle_alpha   90.00000000
_cell_angle_beta   90.00000000
_cell_angle_gamma   90.00000000
_symmetry_Int_Tables_number   1
_chemical_formula_structural   Cr49Ni5
_chemical_formula_sum   'Cr49 Ni5'
_cell_volume   620.03282153
_cell_formula_units_Z   1
loop_
 _symmetry_equiv_pos_site_id
 _symmetry_equiv_pos_as_xyz
  1  'x, y, z'
loop_
 _atom_site_type_symbol
 _atom_site_label
 _atom_site_symmetry_multiplicity
 _atom_site_fract_x
 _atom_site_fract_y
 _atom_site_fract_z
 _atom_site_occupancy
  Cr  Cr0  1  0.99134028  0.99133716  0.99121257  1
  Cr  Cr1  1  0.15882335  0.15791229  0.15869897  1
  Cr  Cr2  1  -0.00634559  0.99087768  0.32584698  1
  Cr  Cr3  1  0.99133121  0.32454589  -0.00719817  1
  Cr  Cr4  1  0.15764328  0.49085017  0.15751402  1
  Cr  Cr5  1  0.99078221  0.32473692  0.32405442  1
  Cr  Cr6  1  -0.00805179  0.65848852  -0.00817697  1
  Cr  Cr7  1  0.15942220  0.82560901  0.15850825  1
  Cr  Cr8  1  -0.00743134  0.65875520  0.32584717  1
  Cr  Cr9  1  0.32524289  -0.00808443  0.99142896  1
  Cr  Cr10  1  0.49039398  0.15669943  0.15949637  1
  Ni  Ni11  1  0.32386087  0.99039087  0.32556118  1
  Cr  Cr12  1  0.32642695  0.32515486  0.98941181  1
  Cr  Cr13  1  0.49157526  0.49206466  0.15831241  1
  Cr  Cr14  1  0.32515474  0.32365242  0.32447808  1
  Cr  Cr15  1  0.32524322  0.65730145  0.99100704  1
  Cr  Cr16  1  0.49100860  0.82560914  0.15931321  1
  Cr  Cr17  1  0.32396580  0.66044212  0.32523703  1
  Cr  Cr18  1  0.65779027  -0.00746883  0.99039930  1
  Cr  Cr19  1  0.82515501  0.15847805  0.15812419  1
  Cr  Cr20  1  0.65674826  -0.00793509  0.32466684  1
  Cr  Cr21  1  0.65661517  0.32454615  0.99044313  1
  Cr  Cr22  1  0.82515385  0.49146648  0.15849403  1
  Cr  Cr23  1  0.65843271  0.32473798  0.32442464  1
  Cr  Cr24  1  0.65718255  0.65729471  0.99101056  1
  Cr  Cr25  1  0.82393870  0.82442716  0.15690319  1
  Cr  Cr26  1  0.65783455  0.65756783  0.32466648  1
  Cr  Cr27  1  0.15963358  0.15722886  0.49132980  1
  Cr  Cr28  1  -0.00803186  0.99032828  0.65730772  1
  Cr  Cr29  1  0.16012886  0.15935332  0.82434345  1
  Cr  Cr30  1  0.15845772  0.49153604  0.49251242  1
  Cr  Cr31  1  -0.00752506  0.32454478  0.65751560  1
  Cr  Cr32  1  0.16011976  0.49022566  0.82434312  1
  Ni  Ni33  1  0.15870021  0.82571388  0.49018076  1
  Cr  Cr34  1  -0.00742555  0.65949805  0.65669868  1
  Cr  Cr35  1  0.15786573  0.82479133  0.82510364  1
  Cr  Cr36  1  0.48977688  0.15770829  0.49114176  1
  Cr  Cr37  1  0.32442774  -0.00740728  0.65770365  1
  Ni  Ni38  1  0.49063544  0.16117985  0.82397322  1
  Cr  Cr39  1  0.49095349  0.49105582  0.49232498  1
  Ni  Ni40  1  0.32677942  0.32493464  0.66026219  1
  Ni  Ni41  1  0.49064133  0.48840064  0.82397259  1
  Cr  Cr42  1  0.48986299  0.82560911  0.48953664  1
  Cr  Cr43  1  0.32442863  0.65662227  0.65812447  1
  Cr  Cr44  1  0.49218160  0.82479128  0.82552455  1
  Cr  Cr45  1  0.82496055  0.15831519  0.49133178  1
  Cr  Cr46  1  0.65797867  -0.00730397  0.65930915  1
  Cr  Cr47  1  0.82384803  0.15757819  0.82491407  1
  Cr  Cr48  1  0.82495957  0.49162899  0.49096234  1
  Cr  Cr49  1  0.65511503  0.32454624  0.65950508  1
  Cr  Cr50  1  0.82384783  0.49201182  0.82491410  1
  Cr  Cr51  1  0.82543664  0.82442798  0.49231161  1
  Cr  Cr52  1  0.65737140  0.65712994  0.65869870  1
  Cr  Cr53  1  0.82432269  0.82478154  0.82515674  1
" 