634,Ni91Fe3Cr5_13,-237.455576352179, 172.670642603787,Ni91Fe3Cr5,"# generated using pymatgen
 data_Cr4FeNi49
_symmetry_space_group_name_H-M   'P 1'
_cell_length_a   7.46242594
_cell_length_b   7.46242594
_cell_length_c   10.55346398
_cell_angle_alpha   90.00000000
_cell_angle_beta   90.00000000
_cell_angle_gamma   90.00000000
_symmetry_Int_Tables_number   1
_chemical_formula_structural   Cr4FeNi49
_chemical_formula_sum   'Cr4 Fe1 Ni49'
_cell_volume   587.69920155
_cell_formula_units_Z   1
loop_
 _symmetry_equiv_pos_site_id
 _symmetry_equiv_pos_as_xyz
  1  'x, y, z'
loop_
 _atom_site_type_symbol
 _atom_site_label
 _atom_site_symmetry_multiplicity
 _atom_site_fract_x
 _atom_site_fract_y
 _atom_site_fract_z
 _atom_site_occupancy
  Ni  Ni0  1  0.99906254  0.99987530  0.99938677  1
  Cr  Cr1  1  0.16686099  0.16679872  0.16712743  1
  Ni  Ni2  1  0.99897492  0.99984584  0.33438233  1
  Ni  Ni3  1  0.99882819  0.33423972  0.99946479  1
  Ni  Ni4  1  0.16383372  0.50142055  0.16608301  1
  Ni  Ni5  1  0.99881451  0.33420439  0.33438188  1
  Ni  Ni6  1  1.00029412  0.66688949  0.00058888  1
  Ni  Ni7  1  0.16653117  0.83351307  0.16613496  1
  Ni  Ni8  1  0.99870571  0.66695774  0.33344848  1
  Ni  Ni9  1  0.33461674  0.99938370  0.99941986  1
  Ni  Ni10  1  0.50227727  0.16474134  0.16711053  1
  Ni  Ni11  1  0.33462921  0.00079403  0.33467349  1
  Ni  Ni12  1  0.33361340  0.33353032  0.99860415  1
  Cr  Cr13  1  0.50176490  0.49935055  0.16595267  1
  Ni  Ni14  1  0.33365471  0.33204153  0.33549765  1
  Ni  Ni15  1  0.33266285  0.66801868  0.99942152  1
  Ni  Ni16  1  0.50073803  0.83573949  0.16613025  1
  Cr  Cr17  1  0.33245760  0.66777457  0.33512392  1
  Ni  Ni18  1  0.66722409  0.00086452  0.00057263  1
  Ni  Ni19  1  0.83248714  0.16767419  0.16691348  1
  Ni  Ni20  1  0.66734965  0.00083232  0.33320967  1
  Ni  Ni21  1  0.66839123  0.33227265  0.99947126  1
  Ni  Ni22  1  0.83487165  0.49994898  0.16710615  1
  Ni  Ni23  1  0.66844764  0.33223366  0.33439101  1
  Ni  Ni24  1  0.66797941  0.66787098  0.99934887  1
  Fe  Fe25  1  0.83364882  0.83376672  0.16683097  1
  Ni  Ni26  1  0.66942357  0.66792818  0.33466469  1
  Ni  Ni27  1  0.16655953  0.16649285  0.50029533  1
  Ni  Ni28  1  0.99964139  0.00051273  0.66710190  1
  Ni  Ni29  1  0.16667435  0.16652683  0.83348130  1
  Ni  Ni30  1  0.16446917  0.49838848  0.49969981  1
  Ni  Ni31  1  0.99998072  0.33340681  0.66711377  1
  Ni  Ni32  1  0.16564941  0.49953274  0.83522827  1
  Ni  Ni33  1  0.16472301  0.83593878  0.50030718  1
  Ni  Ni34  1  0.99879403  0.66701567  0.66679195  1
  Ni  Ni35  1  0.16580933  0.83485913  0.83451886  1
  Ni  Ni36  1  0.50056319  0.16666168  0.49963578  1
  Ni  Ni37  1  0.33384009  0.00192286  0.66679267  1
  Ni  Ni38  1  0.50045152  0.16671562  0.83417780  1
  Ni  Ni39  1  0.50295827  0.49859173  0.50036264  1
  Ni  Ni40  1  0.33364449  0.33213690  0.66680232  1
  Ni  Ni41  1  0.50181229  0.49971535  0.83455074  1
  Ni  Ni42  1  0.50261302  0.83564970  0.50037548  1
  Cr  Cr43  1  0.33348660  0.66684868  0.66688275  1
  Ni  Ni44  1  0.50149152  0.83451878  0.83450480  1
  Ni  Ni45  1  0.83381048  0.16681754  0.50030521  1
  Ni  Ni46  1  0.66744194  0.00071360  0.66710273  1
  Ni  Ni47  1  0.83380993  0.16681758  0.83369043  1
  Ni  Ni48  1  0.83351303  0.50048868  0.50030879  1
  Ni  Ni49  1  0.66729699  0.33301198  0.66710534  1
  Ni  Ni50  1  0.83347270  0.50059220  0.83352674  1
  Ni  Ni51  1  0.83367921  0.83360858  0.49978890  1
  Ni  Ni52  1  0.66873181  0.66721188  0.66681202  1
  Ni  Ni53  1  0.83365996  0.83351318  0.83401694  1
" 