2691,Ni91Cr9_19,-202.885026367262, 187.456398745584,Ni91Cr9,"# generated using pymatgen
 data_Cr49Ni5
_symmetry_space_group_name_H-M   'P 1'
_cell_length_a   7.59374618
_cell_length_b   7.59374618
_cell_length_c   10.73917884
_cell_angle_alpha   90.00000000
_cell_angle_beta   90.00000000
_cell_angle_gamma   90.00000000
_symmetry_Int_Tables_number   1
_chemical_formula_structural   Cr49Ni5
_chemical_formula_sum   'Cr49 Ni5'
_cell_volume   619.27454498
_cell_formula_units_Z   1
loop_
 _symmetry_equiv_pos_site_id
 _symmetry_equiv_pos_as_xyz
  1  'x, y, z'
loop_
 _atom_site_type_symbol
 _atom_site_label
 _atom_site_symmetry_multiplicity
 _atom_site_fract_x
 _atom_site_fract_y
 _atom_site_fract_z
 _atom_site_occupancy
  Cr  Cr0  1  -0.00805926  0.99148637  0.99107029  1
  Cr  Cr1  1  0.15896835  0.15855932  0.15809178  1
  Cr  Cr2  1  -0.00787414  0.99095629  0.32499075  1
  Cr  Cr3  1  0.99135710  0.32504522  -0.00798912  1
  Cr  Cr4  1  0.15904838  0.49216372  0.15812001  1
  Cr  Cr5  1  0.99154074  0.32592106  0.32440480  1
  Cr  Cr6  1  -0.00699733  0.65844133  -0.00822065  1
  Cr  Cr7  1  0.15962657  0.82425000  0.15753457  1
  Cr  Cr8  1  0.99154026  0.65809569  0.32557711  1
  Cr  Cr9  1  0.32543216  0.99098967  -0.00684629  1
  Ni  Ni10  1  0.49180333  0.15817978  0.15879765  1
  Cr  Cr11  1  0.32656815  -0.00675956  0.32499011  1
  Cr  Cr12  1  0.32656902  0.32609460  0.99160943  1
  Cr  Cr13  1  0.49086743  0.49168771  0.15713264  1
  Cr  Cr14  1  0.32657325  0.32305956  0.32539281  1
  Ni  Ni15  1  0.32572897  0.65758220  0.99077226  1
  Cr  Cr16  1  0.49087301  0.82531170  0.15753488  1
  Cr  Cr17  1  0.32429063  0.65867421  0.32458744  1
  Cr  Cr18  1  0.65759984  -0.00736533  -0.00743115  1
  Cr  Cr19  1  0.82399599  0.15855306  0.15773693  1
  Cr  Cr20  1  0.65627993  -0.00676007  0.32498879  1
  Cr  Cr21  1  0.65704603  0.32503637  -0.00798673  1
  Cr  Cr22  1  0.82505841  0.49102862  0.15926341  1
  Cr  Cr23  1  0.65685867  0.32364387  0.32440353  1
  Cr  Cr24  1  0.65654950  0.65730133  0.99028400  1
  Cr  Cr25  1  0.82447372  0.82539131  0.15867743  1
  Cr  Cr26  1  0.65914229  0.65808938  0.32557676  1
  Cr  Cr27  1  0.16010011  0.15934699  0.49303148  1
  Cr  Cr28  1  -0.00805864  0.99111805  0.65891167  1
  Cr  Cr29  1  0.15811083  0.15916329  0.82384938  1
  Cr  Cr30  1  0.15904673  0.49058707  0.49186065  1
  Cr  Cr31  1  -0.00699963  0.32522925  0.65855700  1
  Cr  Cr32  1  0.16147364  0.49119287  0.82499321  1
  Cr  Cr33  1  0.15849070  0.82503980  0.49130485  1
  Cr  Cr34  1  0.99135766  0.65862556  0.65761688  1
  Cr  Cr35  1  0.15928013  0.82461799  0.82613395  1
  Ni  Ni36  1  0.49077372  0.15906683  0.49221817  1
  Cr  Cr37  1  0.32543165  -0.00609249  0.65682882  1
  Cr  Cr38  1  0.49121962  0.16021873  0.82385159  1
  Cr  Cr39  1  0.49086811  0.49011257  0.49284842  1
  Ni  Ni40  1  0.32676548  0.32484447  0.65817463  1
  Ni  Ni41  1  0.48988360  0.49194863  0.82499266  1
  Cr  Cr42  1  0.49200729  0.82610088  0.49130440  1
  Cr  Cr43  1  0.32542478  0.65642883  0.65951527  1
  Cr  Cr44  1  0.49121782  0.82239031  0.82613377  1
  Cr  Cr45  1  0.82399747  0.15820744  0.49189031  1
  Cr  Cr46  1  0.65760168  -0.00773527  0.65741469  1
  Cr  Cr47  1  0.82564175  0.15802334  0.82534570  1
  Cr  Cr48  1  0.82505785  0.49172060  0.49071887  1
  Cr  Cr49  1  0.65540816  0.32522217  0.65855552  1
  Cr  Cr50  1  0.82341454  0.49119084  0.82499123  1
  Cr  Cr51  1  0.82447463  0.82504526  0.49165948  1
  Cr  Cr52  1  0.65819145  0.65748517  0.65911334  1
  Cr  Cr53  1  0.82447384  0.82575936  0.82463656  1
" 