2694,Ni91Cr9_15,-202.860589879105, 187.61385735282,Ni91Cr9,"# generated using pymatgen
 data_Cr49Ni5
_symmetry_space_group_name_H-M   'P 1'
_cell_length_a   7.59321507
_cell_length_b   7.59321507
_cell_length_c   10.73842774
_cell_angle_alpha   90.00000000
_cell_angle_beta   90.00000000
_cell_angle_gamma   90.00000000
_symmetry_Int_Tables_number   1
_chemical_formula_structural   Cr49Ni5
_chemical_formula_sum   'Cr49 Ni5'
_cell_volume   619.14461736
_cell_formula_units_Z   1
loop_
 _symmetry_equiv_pos_site_id
 _symmetry_equiv_pos_as_xyz
  1  'x, y, z'
loop_
 _atom_site_type_symbol
 _atom_site_label
 _atom_site_symmetry_multiplicity
 _atom_site_fract_x
 _atom_site_fract_y
 _atom_site_fract_z
 _atom_site_occupancy
  Cr  Cr0  1  -0.00686346  -0.00778762  0.98962982  1
  Cr  Cr1  1  0.15903576  0.15747976  0.15908493  1
  Cr  Cr2  1  -0.00623611  0.99025116  0.32660541  1
  Cr  Cr3  1  -0.00642013  0.32368842  0.99009990  1
  Cr  Cr4  1  0.15903106  0.49178236  0.15798396  1
  Cr  Cr5  1  -0.00775694  0.32530583  0.32559706  1
  Cr  Cr6  1  -0.00799654  0.65901224  -0.00736588  1
  Cr  Cr7  1  0.15942702  0.82573912  0.15971346  1
  Cr  Cr8  1  -0.00754619  0.65969404  0.32628553  1
  Cr  Cr9  1  0.32375273  -0.00710953  0.99061283  1
  Cr  Cr10  1  0.49071917  0.15723813  0.16033101  1
  Ni  Ni11  1  0.32362628  0.98986867  0.32646022  1
  Cr  Cr12  1  0.32531695  0.32486955  0.99155505  1
  Ni  Ni13  1  0.49138623  0.49163121  0.15835752  1
  Cr  Cr14  1  0.32605164  0.32521665  0.32329612  1
  Cr  Cr15  1  0.32621985  0.65714875  -0.00726671  1
  Cr  Cr16  1  0.49021963  0.82596043  0.15845883  1
  Cr  Cr17  1  0.32527094  0.65887101  0.32521853  1
  Cr  Cr18  1  0.65812499  0.99146969  0.99069456  1
  Cr  Cr19  1  0.82541000  0.15810202  0.15886017  1
  Cr  Cr20  1  0.65731997  0.99079674  0.32557021  1
  Cr  Cr21  1  0.65631038  0.32614302  -0.00690897  1
  Cr  Cr22  1  0.82590884  0.49126284  0.15837209  1
  Cr  Cr23  1  0.65693413  0.32670430  0.32465038  1
  Cr  Cr24  1  0.65707254  0.65747156  -0.00629168  1
  Cr  Cr25  1  0.82538656  0.82573697  0.15704994  1
  Cr  Cr26  1  0.65735539  0.65741742  0.32327236  1
  Cr  Cr27  1  0.15977820  0.15751474  0.48993152  1
  Cr  Cr28  1  -0.00680560  0.99158175  0.65868341  1
  Ni  Ni29  1  0.15862848  0.15794960  0.82503174  1
  Cr  Cr30  1  0.15908858  0.49375276  0.49310071  1
  Cr  Cr31  1  -0.00699653  0.32325742  0.65907171  1
  Cr  Cr32  1  0.15879282  0.49186085  0.82394550  1
  Ni  Ni33  1  0.16124934  0.82551774  0.49165066  1
  Cr  Cr34  1  -0.00671630  0.66033021  0.65654778  1
  Cr  Cr35  1  0.15979926  0.82382718  0.82455450  1
  Cr  Cr36  1  0.49095832  0.15709067  0.49021820  1
  Cr  Cr37  1  0.32301366  0.99137168  0.65831150  1
  Cr  Cr38  1  0.49071644  0.15764360  0.82448762  1
  Cr  Cr39  1  0.49027321  0.49236860  0.49354582  1
  Cr  Cr40  1  0.32430239  0.32495693  0.65998165  1
  Cr  Cr41  1  0.49047357  0.49318459  0.82344000  1
  Cr  Cr42  1  0.48885586  0.82555827  0.49266502  1
  Ni  Ni43  1  0.32325348  0.66012262  0.65706062  1
  Cr  Cr44  1  0.49059436  0.82429779  0.82395430  1
  Cr  Cr45  1  0.82458473  0.15881341  0.49108965  1
  Cr  Cr46  1  0.65871382  0.99160608  0.65871335  1
  Cr  Cr47  1  0.82537732  0.15881120  0.82501822  1
  Cr  Cr48  1  0.82582092  0.49120600  0.49228030  1
  Cr  Cr49  1  0.65769923  0.32476272  0.65743972  1
  Cr  Cr50  1  0.82578653  0.49197083  0.82450160  1
  Cr  Cr51  1  0.82567297  0.82500870  0.49168591  1
  Cr  Cr52  1  0.65695538  0.65871376  0.65816664  1
  Cr  Cr53  1  0.82444183  0.82432852  0.82636866  1
" 