7620,Ni91Fe3Cr5_2,-237.527036070998, 174.384472129146,Ni91Fe3Cr5,"# generated using pymatgen
 data_Cr4FeNi49
_symmetry_space_group_name_H-M   'P 1'
_cell_length_a   7.46239111
_cell_length_b   7.46239111
_cell_length_c   10.55341471
_cell_angle_alpha   90.00000000
_cell_angle_beta   90.00000000
_cell_angle_gamma   90.00000000
_symmetry_Int_Tables_number   1
_chemical_formula_structural   Cr4FeNi49
_chemical_formula_sum   'Cr4 Fe1 Ni49'
_cell_volume   587.69097144
_cell_formula_units_Z   1
loop_
 _symmetry_equiv_pos_site_id
 _symmetry_equiv_pos_as_xyz
  1  'x, y, z'
loop_
 _atom_site_type_symbol
 _atom_site_label
 _atom_site_symmetry_multiplicity
 _atom_site_fract_x
 _atom_site_fract_y
 _atom_site_fract_z
 _atom_site_occupancy
  Ni  Ni0  1  0.00168040  1.00013791  1.00023156  1
  Ni  Ni1  1  0.16680736  0.16687111  0.16745302  1
  Ni  Ni2  1  0.00041652  0.00037726  0.33316715  1
  Ni  Ni3  1  0.00176651  0.33287524  0.00115571  1
  Ni  Ni4  1  0.16644575  0.50027522  0.16734664  1
  Ni  Ni5  1  0.00064140  0.33384882  0.33385827  1
  Ni  Ni6  1  0.00145292  0.66790313  0.00098080  1
  Ni  Ni7  1  0.16724379  0.83378168  0.16677536  1
  Ni  Ni8  1  0.00077086  0.66674638  0.33391573  1
  Ni  Ni9  1  0.33120958  0.00155517  0.00116905  1
  Ni  Ni10  1  0.49922397  0.16753876  0.16828054  1
  Ni  Ni11  1  0.33353400  0.00040412  0.33355276  1
  Ni  Ni12  1  0.33363144  0.33414489  1.00020338  1
  Ni  Ni13  1  0.50045181  0.50044749  0.16686560  1
  Ni  Ni14  1  0.33377046  0.33424461  0.33405743  1
  Ni  Ni15  1  0.33249193  0.66522257  0.00133808  1
  Ni  Ni16  1  0.49891589  0.83297187  0.16819413  1
  Ni  Ni17  1  0.33352627  0.66628732  0.33354944  1
  Cr  Cr18  1  0.66831598  0.00127925  0.00113587  1
  Ni  Ni19  1  0.83479419  0.16831032  0.16781737  1
  Ni  Ni20  1  0.66699424  0.00051814  0.33396776  1
  Ni  Ni21  1  0.66547181  0.33429481  0.00132167  1
  Ni  Ni22  1  0.83403102  0.49995003  0.16709145  1
  Ni  Ni23  1  0.66653266  0.33381433  0.33322757  1
  Ni  Ni24  1  0.66694793  0.66552264  0.00247487  1
  Ni  Ni25  1  0.83471321  0.83258923  0.16840277  1
  Ni  Ni26  1  0.66666039  0.66658413  0.33334918  1
  Ni  Ni27  1  0.16741788  0.16730444  0.49907351  1
  Cr  Cr28  1  0.00058870  0.00049444  0.66742249  1
  Ni  Ni29  1  0.16780431  0.16783225  0.83440743  1
  Ni  Ni30  1  0.16625652  0.50062031  0.50045016  1
  Ni  Ni31  1  0.00151748  0.33430785  0.66598217  1
  Ni  Ni32  1  0.16789248  0.50034312  0.83312650  1
  Ni  Ni33  1  0.16920278  0.83296108  0.49939400  1
  Ni  Ni34  1  0.00159884  0.66628851  0.66597444  1
  Ni  Ni35  1  0.16665675  0.83282324  0.83474864  1
  Ni  Ni36  1  0.50054577  0.16635123  0.50046489  1
  Ni  Ni37  1  0.33398959  0.00131202  0.66624980  1
  Ni  Ni38  1  0.49927280  0.16885225  0.83223772  1
  Ni  Ni39  1  0.50088590  0.50078383  0.50060411  1
  Ni  Ni40  1  0.33363958  0.33413134  0.66668578  1
  Ni  Ni41  1  0.49902303  0.49891001  0.83349391  1
  Ni  Ni42  1  0.49931773  0.83376578  0.50009357  1
  Ni  Ni43  1  0.33265378  0.66552241  0.66614004  1
  Cr  Cr44  1  0.49867968  0.83233716  0.83282989  1
  Ni  Ni45  1  0.83292615  0.16924786  0.49936913  1
  Ni  Ni46  1  0.66652388  0.00132475  0.66588876  1
  Ni  Ni47  1  0.83385960  0.16780380  0.83368111  1
  Ni  Ni48  1  0.83373319  0.49937471  0.50006976  1
  Ni  Ni49  1  0.66576345  0.33297199  0.66642761  1
  Cr  Cr50  1  0.83361732  0.49997413  0.83405961  1
  Fe  Fe51  1  0.83319015  0.83297440  0.49914331  1
  Ni  Ni52  1  0.66683982  0.66669288  0.66507787  1
  Ni  Ni53  1  0.83500839  0.83304566  0.83286852  1
" 