364,Ni91Cr9_6,-202.841647825744, 186.941978955499,Ni91Cr9,"# generated using pymatgen
 data_Cr49Ni5
_symmetry_space_group_name_H-M   'P 1'
_cell_length_a   7.59398532
_cell_length_b   7.59398532
_cell_length_c   10.73951703
_cell_angle_alpha   90.00000000
_cell_angle_beta   90.00000000
_cell_angle_gamma   90.00000000
_symmetry_Int_Tables_number   1
_chemical_formula_structural   Cr49Ni5
_chemical_formula_sum   'Cr49 Ni5'
_cell_volume   619.33305230
_cell_formula_units_Z   1
loop_
 _symmetry_equiv_pos_site_id
 _symmetry_equiv_pos_as_xyz
  1  'x, y, z'
loop_
 _atom_site_type_symbol
 _atom_site_label
 _atom_site_symmetry_multiplicity
 _atom_site_fract_x
 _atom_site_fract_y
 _atom_site_fract_z
 _atom_site_occupancy
  Cr  Cr0  1  0.99134429  -0.00698974  -0.00763259  1
  Cr  Cr1  1  0.15854915  0.15881931  0.15849585  1
  Cr  Cr2  1  0.99117891  0.99118509  0.32446667  1
  Cr  Cr3  1  0.99081031  0.32414364  0.99150502  1
  Cr  Cr4  1  0.15847745  0.49181078  0.15954183  1
  Cr  Cr5  1  -0.00785083  0.32548250  0.32446811  1
  Cr  Cr6  1  -0.00814337  0.65777350  -0.00777513  1
  Cr  Cr7  1  0.15689730  0.82429541  0.15903313  1
  Ni  Ni8  1  -0.00819492  0.65814383  0.32497536  1
  Cr  Cr9  1  0.32548562  0.99038270  0.99080794  1
  Cr  Cr10  1  0.49193990  0.15935453  0.15935760  1
  Cr  Cr11  1  0.32493054  -0.00738680  0.32497510  1
  Cr  Cr12  1  0.32444016  0.32518997  -0.00777513  1
  Cr  Cr13  1  0.49096207  0.49023063  0.15903313  1
  Ni  Ni14  1  0.32481050  0.32513841  0.32497536  1
  Cr  Cr15  1  0.32602012  0.65935345  0.99022856  1
  Cr  Cr16  1  0.49200815  0.82534148  0.15761642  1
  Cr  Cr17  1  0.32396079  0.65729413  0.32502042  1
  Cr  Cr18  1  0.65809779  0.99143112  -0.00814237  1
  Ni  Ni19  1  0.82493194  0.15826527  0.15812956  1
  Cr  Cr20  1  0.65881837  -0.00784829  0.32446524  1
  Cr  Cr21  1  0.65967692  0.32467763  -0.00763259  1
  Cr  Cr22  1  0.82548597  0.49188248  0.15849585  1
  Cr  Cr23  1  0.65785176  0.32451225  0.32446667  1
  Cr  Cr24  1  0.65704937  0.65881895  0.99080794  1
  Cr  Cr25  1  0.82602120  0.82527323  0.15935760  1
  Cr  Cr26  1  0.65927987  0.65826388  0.32497510  1
  Cr  Cr27  1  0.15956744  0.15881984  0.49145460  1
  Cr  Cr28  1  -0.00809859  -0.00754649  0.65809602  1
  Cr  Cr29  1  0.15835919  0.15826363  0.82497540  1
  Cr  Cr30  1  0.15902935  0.49236268  0.49091733  1
  Cr  Cr31  1  0.99136591  0.32469924  0.65895700  1
  Cr  Cr32  1  0.15886360  0.49219693  0.82446620  1
  Cr  Cr33  1  0.15745116  0.82374313  0.49142724  1
  Cr  Cr34  1  -0.00712493  0.65777426  0.65772687  1
  Cr  Cr35  1  0.15982613  0.82446532  0.82446600  1
  Cr  Cr36  1  0.49091821  0.15935486  0.49059294  1
  Cr  Cr37  1  0.32548418  0.98936582  0.65914126  1
  Cr  Cr38  1  0.49164133  0.15729322  0.82497527  1
  Cr  Cr39  1  0.49040980  0.49078449  0.49142724  1
  Cr  Cr40  1  0.32444093  0.32620840  0.65772687  1
  Cr  Cr41  1  0.49113199  0.49315947  0.82446600  1
  Cr  Cr42  1  0.49145430  0.82478763  0.49284357  1
  Ni  Ni43  1  0.32591927  0.65925261  0.65938993  1
  Ni  Ni44  1  0.49074216  0.82407550  0.82407249  1
  Cr  Cr45  1  0.82444050  0.15777383  0.49245631  1
  Cr  Cr46  1  0.65754185  0.99087518  0.65860514  1
  Cr  Cr47  1  0.82492590  0.15825923  0.82502003  1
  Cr  Cr48  1  0.82548650  0.49290077  0.49145460  1
  Cr  Cr49  1  0.65912018  0.32523474  0.65809602  1
  Cr  Cr50  1  0.82493030  0.49169252  0.82497540  1
  Cr  Cr51  1  0.82602153  0.82425154  0.49059294  1
  Cr  Cr52  1  0.65603249  0.65881752  0.65914126  1
  Cr  Cr53  1  0.82395989  0.82497467  0.82497527  1
" 