2568,Ni91Cr9_8,-202.84425427484, 187.074778233805,Ni91Cr9,"# generated using pymatgen
 data_Cr49Ni5
_symmetry_space_group_name_H-M   'P 1'
_cell_length_a   7.59386903
_cell_length_b   7.59386903
_cell_length_c   10.73935257
_cell_angle_alpha   90.00000000
_cell_angle_beta   90.00000000
_cell_angle_gamma   90.00000000
_symmetry_Int_Tables_number   1
_chemical_formula_structural   Cr49Ni5
_chemical_formula_sum   'Cr49 Ni5'
_cell_volume   619.30459915
_cell_formula_units_Z   1
loop_
 _symmetry_equiv_pos_site_id
 _symmetry_equiv_pos_as_xyz
  1  'x, y, z'
loop_
 _atom_site_type_symbol
 _atom_site_label
 _atom_site_symmetry_multiplicity
 _atom_site_fract_x
 _atom_site_fract_y
 _atom_site_fract_z
 _atom_site_occupancy
  Cr  Cr0  1  -0.00831011  0.99147509  0.99007512  1
  Cr  Cr1  1  0.15760429  0.15779903  0.15826027  1
  Cr  Cr2  1  -0.00680808  -0.00792596  0.32519088  1
  Cr  Cr3  1  -0.00705524  0.32391615  0.99097579  1
  Cr  Cr4  1  0.15892992  0.49364556  0.15680881  1
  Cr  Cr5  1  -0.00642714  0.32445100  0.32557491  1
  Cr  Cr6  1  0.99078838  0.65950379  0.99156329  1
  Cr  Cr7  1  0.15990665  0.82352180  0.15771187  1
  Cr  Cr8  1  0.99089314  0.65848665  0.32455951  1
  Cr  Cr9  1  0.32341783  -0.00714513  0.99067371  1
  Cr  Cr10  1  0.49276013  0.15739731  0.15828583  1
  Cr  Cr11  1  0.32343655  -0.00622278  0.32676916  1
  Cr  Cr12  1  0.32410479  0.32478859  0.99104553  1
  Cr  Cr13  1  0.49002706  0.49264003  0.15685998  1
  Cr  Cr14  1  0.32412015  0.32382631  0.32595150  1
  Ni  Ni15  1  0.32519962  0.65844125  -0.00804856  1
  Cr  Cr16  1  0.48945880  0.82497027  0.15774959  1
  Cr  Cr17  1  0.32507070  0.65735445  0.32494963  1
  Cr  Cr18  1  0.65991204  0.99046476  0.99064544  1
  Cr  Cr19  1  0.82463801  0.15848646  0.15869547  1
  Cr  Cr20  1  0.65834857  0.99103774  0.32458725  1
  Cr  Cr21  1  0.65786280  0.32563997  -0.00711536  1
  Cr  Cr22  1  0.82603217  0.49023861  0.15910266  1
  Cr  Cr23  1  0.65720964  0.32608849  0.32374628  1
  Cr  Cr24  1  0.65916063  0.65876843  0.99030910  1
  Cr  Cr25  1  0.82563576  0.82620845  0.15859987  1
  Cr  Cr26  1  0.65900315  0.65781895  0.32583111  1
  Ni  Ni27  1  0.15658315  0.15977370  0.49321790  1
  Cr  Cr28  1  -0.00676691  -0.00715580  0.65971530  1
  Ni  Ni29  1  0.15658285  0.15941327  0.82317933  1
  Cr  Cr30  1  0.15672520  0.49055568  0.49277776  1
  Ni  Ni31  1  -0.00550438  0.32211931  0.65809393  1
  Cr  Cr32  1  0.15820265  0.49109014  0.82528093  1
  Cr  Cr33  1  0.15870421  0.82571958  0.49048914  1
  Cr  Cr34  1  0.99006520  0.65851525  0.65890731  1
  Cr  Cr35  1  0.15885345  0.82450130  0.82666668  1
  Cr  Cr36  1  0.49201134  0.15763692  0.49134625  1
  Cr  Cr37  1  0.32275080  -0.00579027  0.65743015  1
  Cr  Cr38  1  0.49129403  0.15805633  0.82535029  1
  Cr  Cr39  1  0.49149476  0.49178961  0.49211065  1
  Cr  Cr40  1  0.32196006  0.32269926  0.65795121  1
  Cr  Cr41  1  0.48995299  0.49245275  0.82597824  1
  Cr  Cr42  1  0.49090457  0.82553999  0.49170777  1
  Cr  Cr43  1  0.32536323  0.65793120  0.65801748  1
  Cr  Cr44  1  0.49075078  0.82458913  0.82543806  1
  Cr  Cr45  1  0.82666753  0.15945005  0.49182581  1
  Cr  Cr46  1  0.65918430  0.98968646  0.65983986  1
  Cr  Cr47  1  0.82659329  0.15852445  0.82442008  1
  Cr  Cr48  1  0.82654975  0.48954326  0.49262983  1
  Cr  Cr49  1  0.65829897  0.32587854  0.65836895  1
  Cr  Cr50  1  0.82662455  0.49036993  0.82320762  1
  Cr  Cr51  1  0.82533285  0.82603114  0.49175969  1
  Cr  Cr52  1  0.65960156  0.65930376  0.65892086  1
  Ni  Ni53  1  0.82538547  0.82518622  0.82509676  1
" 