7772,Ni91Cr9_14,-202.865310440161, 187.784799849438,Ni91Cr9,"# generated using pymatgen
 data_Cr49Ni5
_symmetry_space_group_name_H-M   'P 1'
_cell_length_a   7.59348685
_cell_length_b   7.59348685
_cell_length_c   10.73881208
_cell_angle_alpha   90.00000000
_cell_angle_beta   90.00000000
_cell_angle_gamma   90.00000000
_symmetry_Int_Tables_number   1
_chemical_formula_structural   Cr49Ni5
_chemical_formula_sum   'Cr49 Ni5'
_cell_volume   619.21109974
_cell_formula_units_Z   1
loop_
 _symmetry_equiv_pos_site_id
 _symmetry_equiv_pos_as_xyz
  1  'x, y, z'
loop_
 _atom_site_type_symbol
 _atom_site_label
 _atom_site_symmetry_multiplicity
 _atom_site_fract_x
 _atom_site_fract_y
 _atom_site_fract_z
 _atom_site_occupancy
  Cr  Cr0  1  -0.00826092  0.99068076  -0.00595726  1
  Cr  Cr1  1  0.15824004  0.15688078  0.15842213  1
  Cr  Cr2  1  0.99158544  0.98984939  0.32463414  1
  Cr  Cr3  1  0.99154965  0.32535941  -0.00822547  1
  Cr  Cr4  1  0.15774052  0.49280913  0.15804415  1
  Cr  Cr5  1  0.99092247  0.32496155  0.32462673  1
  Cr  Cr6  1  -0.00760595  0.65894722  -0.00737420  1
  Ni  Ni7  1  0.15817166  0.82493882  0.15812001  1
  Cr  Cr8  1  0.99100431  0.66021541  0.32513860  1
  Cr  Cr9  1  0.32437223  0.99038230  -0.00678578  1
  Cr  Cr10  1  0.49304615  0.15892792  0.15939221  1
  Cr  Cr11  1  0.32352318  0.99030385  0.32409100  1
  Cr  Cr12  1  0.32501651  0.32608819  0.99090280  1
  Cr  Cr13  1  0.49425010  0.49188612  0.16073983  1
  Cr  Cr14  1  0.32530558  0.32559236  0.32586740  1
  Cr  Cr15  1  0.32441759  0.65854398  -0.00680497  1
  Cr  Cr16  1  0.49174482  0.82421749  0.15856160  1
  Cr  Cr17  1  0.32496705  0.65913083  0.32329546  1
  Cr  Cr18  1  0.65889542  0.99132558  0.98997389  1
  Cr  Cr19  1  0.82372982  0.15966787  0.15854220  1
  Cr  Cr20  1  0.65992711  0.99019706  0.32673014  1
  Cr  Cr21  1  0.65844636  0.32539894  0.99095093  1
  Cr  Cr22  1  0.82303834  0.49165334  0.15991200  1
  Ni  Ni23  1  0.65845948  0.32750149  0.32482219  1
  Cr  Cr24  1  0.65818229  0.65829692  0.99142858  1
  Cr  Cr25  1  0.82466254  0.82377417  0.15902797  1
  Ni  Ni26  1  0.65995451  0.65728721  0.32625799  1
  Cr  Cr27  1  0.15845820  0.15817039  0.49206904  1
  Cr  Cr28  1  0.98944470  0.98994035  0.65639321  1
  Cr  Cr29  1  0.15798053  0.15747491  0.82456206  1
  Cr  Cr30  1  0.15703912  0.49267553  0.49391758  1
  Cr  Cr31  1  0.99103993  0.32645003  0.65868443  1
  Cr  Cr32  1  0.15671108  0.49313894  0.82315982  1
  Cr  Cr33  1  0.15644032  0.82409883  0.49288066  1
  Ni  Ni34  1  0.98991122  0.65989798  0.65717436  1
  Cr  Cr35  1  0.15744401  0.82442197  0.82451538  1
  Cr  Cr36  1  0.49216456  0.15893670  0.49060466  1
  Cr  Cr37  1  0.32603117  -0.00822687  0.65782264  1
  Cr  Cr38  1  0.49124940  0.15727471  0.82497352  1
  Cr  Cr39  1  0.49344023  0.49205874  0.48884827  1
  Cr  Cr40  1  0.32576616  0.32558042  0.65826516  1
  Cr  Cr41  1  0.49171822  0.49256918  0.82539555  1
  Cr  Cr42  1  0.49363618  0.82388157  0.49103838  1
  Cr  Cr43  1  0.32468295  0.65769329  0.65865820  1
  Cr  Cr44  1  0.49126042  0.82516766  0.82540597  1
  Cr  Cr45  1  0.82439774  0.15826309  0.49018947  1
  Cr  Cr46  1  0.65950251  0.99088308  0.65808384  1
  Cr  Cr47  1  0.82579658  0.15794668  0.82625610  1
  Cr  Cr48  1  0.82457211  0.49393152  0.49034109  1
  Cr  Cr49  1  0.65822024  0.32501605  0.65899703  1
  Cr  Cr50  1  0.82659809  0.49319489  0.82480784  1
  Ni  Ni51  1  0.82509250  0.82204710  0.49185825  1
  Cr  Cr52  1  0.66021747  0.65917634  0.65758044  1
  Cr  Cr53  1  0.82632078  0.82394151  0.82360547  1
" 