4202,Ni91Fe3Cr5_15,-237.418967726492, 172.49606900989,Ni91Fe3Cr5,"# generated using pymatgen
 data_Cr4FeNi49
_symmetry_space_group_name_H-M   'P 1'
_cell_length_a   7.46226228
_cell_length_b   7.46226228
_cell_length_c   10.55323252
_cell_angle_alpha   90.00000000
_cell_angle_beta   90.00000000
_cell_angle_gamma   90.00000000
_symmetry_Int_Tables_number   1
_chemical_formula_structural   Cr4FeNi49
_chemical_formula_sum   'Cr4 Fe1 Ni49'
_cell_volume   587.66053409
_cell_formula_units_Z   1
loop_
 _symmetry_equiv_pos_site_id
 _symmetry_equiv_pos_as_xyz
  1  'x, y, z'
loop_
 _atom_site_type_symbol
 _atom_site_label
 _atom_site_symmetry_multiplicity
 _atom_site_fract_x
 _atom_site_fract_y
 _atom_site_fract_z
 _atom_site_occupancy
  Ni  Ni0  1  0.00165919  1.00013970  1.00009609  1
  Ni  Ni1  1  0.16616935  0.16533811  0.16559219  1
  Ni  Ni2  1  1.00011019  1.00015655  0.33163727  1
  Ni  Ni3  1  1.00016516  0.33383927  0.00049154  1
  Fe  Fe4  1  0.16632423  0.50122561  0.16584514  1
  Ni  Ni5  1  0.99795057  0.33489508  0.33295720  1
  Ni  Ni6  1  0.00040373  0.66706798  1.00019535  1
  Ni  Ni7  1  0.16704001  0.83443562  0.16734327  1
  Ni  Ni8  1  0.00136550  0.66597279  0.33288939  1
  Ni  Ni9  1  0.33237584  1.00007620  0.00038337  1
  Ni  Ni10  1  0.49961735  0.16775535  0.16702884  1
  Ni  Ni11  1  0.33466424  0.99808414  0.33275772  1
  Ni  Ni12  1  0.33360878  0.33382166  1.00007628  1
  Ni  Ni13  1  0.50222763  0.50132523  0.16578237  1
  Cr  Cr14  1  0.33426026  0.33539296  0.33321414  1
  Ni  Ni15  1  0.33340579  0.66709607  0.00048066  1
  Ni  Ni16  1  0.49892701  0.83180854  0.16809282  1
  Ni  Ni17  1  0.33350156  0.66858699  0.33403179  1
  Cr  Cr18  1  0.66763227  0.99980419  1.00015477  1
  Ni  Ni19  1  0.83517622  0.16859788  0.16839873  1
  Ni  Ni20  1  0.66614862  0.00115682  0.33270136  1
  Ni  Ni21  1  0.66715919  0.33483476  0.00040073  1
  Ni  Ni22  1  0.83263011  0.50047064  0.16706891  1
  Ni  Ni23  1  0.66837102  0.33372287  0.33383451  1
  Ni  Ni24  1  0.66711999  0.66558793  1.00009638  1
  Ni  Ni25  1  0.83498173  0.83184882  0.16754421  1
  Ni  Ni26  1  0.66617766  0.66614601  0.33262706  1
  Cr  Cr27  1  0.16557816  0.16506848  0.50181636  1
  Ni  Ni28  1  0.99992208  1.00006964  0.66930542  1
  Ni  Ni29  1  0.16714622  0.16707345  0.83403762  1
  Ni  Ni30  1  0.16601322  0.50257859  0.50057335  1
  Ni  Ni31  1  0.99956205  0.33517744  0.66753173  1
  Ni  Ni32  1  0.16713951  0.50023172  0.83425153  1
  Ni  Ni33  1  0.16854918  0.83213368  0.50023794  1
  Ni  Ni34  1  0.00155534  0.66578880  0.66777546  1
  Ni  Ni35  1  0.16718790  0.83370428  0.83335095  1
  Ni  Ni36  1  0.50229180  0.16638171  0.50097510  1
  Ni  Ni37  1  0.33492014  0.99911601  0.66788243  1
  Ni  Ni38  1  0.49891933  0.16842421  0.83294171  1
  Ni  Ni39  1  0.50161255  0.50147067  0.50131945  1
  Ni  Ni40  1  0.33428902  0.33510576  0.66806858  1
  Ni  Ni41  1  0.50045772  0.50038589  0.83393337  1
  Ni  Ni42  1  0.49878694  0.83314095  0.49984918  1
  Ni  Ni43  1  0.33323441  0.66668709  0.66641670  1
  Ni  Ni44  1  0.49901990  0.83207644  0.83295161  1
  Ni  Ni45  1  0.83228620  0.16890851  0.49983607  1
  Ni  Ni46  1  0.66616252  0.00117279  0.66770151  1
  Ni  Ni47  1  0.83495703  0.16852881  0.83260534  1
  Ni  Ni48  1  0.83321595  0.49914785  0.50021963  1
  Ni  Ni49  1  0.66707731  0.33353755  0.66669736  1
  Ni  Ni50  1  0.83332526  0.50034116  0.83366609  1
  Cr  Cr51  1  0.83397081  0.83353250  0.50009922  1
  Ni  Ni52  1  0.66618646  0.66631869  0.66825297  1
  Ni  Ni53  1  0.83477411  0.83202389  0.83329555  1
" 