4489,Ni91Cr9_0,-202.850247114465, 187.022456988944,Ni91Cr9,"# generated using pymatgen
 data_Cr49Ni5
_symmetry_space_group_name_H-M   'P 1'
_cell_length_a   7.59382358
_cell_length_b   7.59382358
_cell_length_c   10.73928830
_cell_angle_alpha   90.00000000
_cell_angle_beta   90.00000000
_cell_angle_gamma   90.00000000
_symmetry_Int_Tables_number   1
_chemical_formula_structural   Cr49Ni5
_chemical_formula_sum   'Cr49 Ni5'
_cell_volume   619.29348089
_cell_formula_units_Z   1
loop_
 _symmetry_equiv_pos_site_id
 _symmetry_equiv_pos_as_xyz
  1  'x, y, z'
loop_
 _atom_site_type_symbol
 _atom_site_label
 _atom_site_symmetry_multiplicity
 _atom_site_fract_x
 _atom_site_fract_y
 _atom_site_fract_z
 _atom_site_occupancy
  Cr  Cr0  1  0.98888682  -0.00674044  0.99164862  1
  Cr  Cr1  1  0.15880968  0.15731492  0.15967301  1
  Cr  Cr2  1  0.99123543  -0.00743225  0.32418937  1
  Cr  Cr3  1  0.98955588  0.32300792  -0.00706699  1
  Cr  Cr4  1  0.15793706  0.49088836  0.15713840  1
  Cr  Cr5  1  0.99064037  0.32414416  0.32362426  1
  Cr  Cr6  1  -0.00729163  0.65868807  -0.00793217  1
  Cr  Cr7  1  0.15884589  0.82674032  0.15848797  1
  Cr  Cr8  1  0.99153519  0.65817305  0.32494324  1
  Cr  Cr9  1  0.32567565  0.99076851  -0.00746877  1
  Cr  Cr10  1  0.49082768  0.15763551  0.15932002  1
  Ni  Ni11  1  0.32514732  0.99111336  0.32496546  1
  Cr  Cr12  1  0.32495536  0.32556501  0.99127836  1
  Cr  Cr13  1  0.49330032  0.49207256  0.15838408  1
  Cr  Cr14  1  0.32454787  0.32445903  0.32576813  1
  Cr  Cr15  1  0.32432049  0.65863730  0.99044565  1
  Cr  Cr16  1  0.49210562  0.82523954  0.15976976  1
  Cr  Cr17  1  0.32510632  0.65953382  0.32537945  1
  Cr  Cr18  1  0.66044736  -0.00611869  0.99119737  1
  Ni  Ni19  1  0.82490769  0.15829163  0.15778454  1
  Cr  Cr20  1  0.65836420  -0.00811599  0.32372602  1
  Cr  Cr21  1  0.66040969  0.32174184  0.99130661  1
  Cr  Cr22  1  0.82367402  0.49211364  0.15963998  1
  Cr  Cr23  1  0.65971152  0.32403313  0.32451237  1
  Cr  Cr24  1  0.65792119  0.65939406  -0.00823057  1
  Cr  Cr25  1  0.82396990  0.82423090  0.15925629  1
  Ni  Ni26  1  0.65776318  0.65864264  0.32495956  1
  Cr  Cr27  1  0.15866086  0.15638293  0.49161291  1
  Ni  Ni28  1  0.99044261  -0.00692164  0.65988463  1
  Cr  Cr29  1  0.15681522  0.15735271  0.82373153  1
  Cr  Cr30  1  0.15732199  0.49034267  0.49202117  1
  Cr  Cr31  1  0.99059746  0.32330517  0.65846642  1
  Cr  Cr32  1  0.15757455  0.49065785  0.82575797  1
  Cr  Cr33  1  0.15731968  0.82819187  0.49203190  1
  Cr  Cr34  1  -0.00713256  0.65972700  0.65793033  1
  Cr  Cr35  1  0.15679283  0.82689664  0.82448116  1
  Cr  Cr36  1  0.49000767  0.15745037  0.49065400  1
  Cr  Cr37  1  0.32485668  0.99060301  0.65749485  1
  Cr  Cr38  1  0.49187067  0.15847460  0.82497160  1
  Cr  Cr39  1  0.49388518  0.49176822  0.49104817  1
  Cr  Cr40  1  0.32537933  0.32614205  0.65791329  1
  Cr  Cr41  1  0.49259472  0.49110464  0.82537167  1
  Cr  Cr42  1  0.49274969  0.82567290  0.48922721  1
  Cr  Cr43  1  0.32473592  0.65820767  0.65914071  1
  Cr  Cr44  1  0.49225896  0.82535496  0.82575514  1
  Cr  Cr45  1  0.82633114  0.15741762  0.49334445  1
  Cr  Cr46  1  0.66049775  -0.00706886  0.66014504  1
  Ni  Ni47  1  0.82669355  0.15717719  0.82402346  1
  Cr  Cr48  1  0.82366419  0.49314161  0.49013883  1
  Cr  Cr49  1  0.65891516  0.32321802  0.65928525  1
  Cr  Cr50  1  0.82481809  0.49103654  0.82497505  1
  Cr  Cr51  1  0.82491932  0.82443689  0.49204471  1
  Cr  Cr52  1  0.65729853  0.65892318  0.65748599  1
  Cr  Cr53  1  0.82606611  0.82622763  0.82360790  1
" 