8256,Ni91Cr9_16,-202.748310009689, 186.039600829462,Ni91Cr9,"# generated using pymatgen
 data_Cr49Ni5
_symmetry_space_group_name_H-M   'P 1'
_cell_length_a   7.59615912
_cell_length_b   7.59615912
_cell_length_c   10.74259124
_cell_angle_alpha   90.00000000
_cell_angle_beta   90.00000000
_cell_angle_gamma   90.00000000
_symmetry_Int_Tables_number   1
_chemical_formula_structural   Cr49Ni5
_chemical_formula_sum   'Cr49 Ni5'
_cell_volume   619.86506094
_cell_formula_units_Z   1
loop_
 _symmetry_equiv_pos_site_id
 _symmetry_equiv_pos_as_xyz
  1  'x, y, z'
loop_
 _atom_site_type_symbol
 _atom_site_label
 _atom_site_symmetry_multiplicity
 _atom_site_fract_x
 _atom_site_fract_y
 _atom_site_fract_z
 _atom_site_occupancy
  Ni  Ni0  1  -0.00623704  0.99107256  -0.00849398  1
  Cr  Cr1  1  0.15929352  0.15747487  0.15690852  1
  Cr  Cr2  1  0.99071243  -0.00829684  0.32482404  1
  Cr  Cr3  1  0.99104331  0.32331704  -0.00796529  1
  Cr  Cr4  1  0.15923294  0.49037122  0.16003854  1
  Cr  Cr5  1  -0.00720841  0.32424603  0.32431348  1
  Cr  Cr6  1  -0.00837613  0.65840140  -0.00748535  1
  Cr  Cr7  1  0.15779761  0.82649040  0.15545264  1
  Cr  Cr8  1  -0.00803271  0.65851614  0.32467045  1
  Ni  Ni9  1  0.32258953  -0.00804260  0.99145956  1
  Cr  Cr10  1  0.49047113  0.15766768  0.15935973  1
  Cr  Cr11  1  0.32459486  0.99126062  0.32563916  1
  Cr  Cr12  1  0.32471170  0.32460790  -0.00846887  1
  Cr  Cr13  1  0.49069590  0.49006818  0.15915796  1
  Ni  Ni14  1  0.32541159  0.32395602  0.32491092  1
  Cr  Cr15  1  0.32533049  0.65964942  -0.00789093  1
  Cr  Cr16  1  0.49137392  0.82701328  0.15803573  1
  Cr  Cr17  1  0.32456117  0.65794642  0.32430849  1
  Cr  Cr18  1  0.65817698  0.99150144  -0.00842019  1
  Cr  Cr19  1  0.82483149  0.15621258  0.15778974  1
  Ni  Ni20  1  0.65762642  -0.00794094  0.32483351  1
  Cr  Cr21  1  0.65878625  0.32525467  0.99007641  1
  Cr  Cr22  1  0.82488325  0.49167566  0.15779577  1
  Cr  Cr23  1  0.65873016  0.32409218  0.32425613  1
  Cr  Cr24  1  0.65755317  0.65779045  -0.00794783  1
  Cr  Cr25  1  0.82510964  0.82655745  0.15840136  1
  Cr  Cr26  1  0.65791760  0.65985386  0.32330299  1
  Cr  Cr27  1  0.15948656  0.15926848  0.49034626  1
  Cr  Cr28  1  -0.00794401  0.99147005  0.65767900  1
  Cr  Cr29  1  0.15850371  0.15661541  0.82731903  1
  Cr  Cr30  1  0.15821937  0.49145001  0.49148019  1
  Cr  Cr31  1  0.99139523  0.32430089  0.65815717  1
  Cr  Cr32  1  0.15729294  0.49243213  0.82311571  1
  Cr  Cr33  1  0.15677187  0.82356466  0.49350934  1
  Ni  Ni34  1  0.99147172  0.65856223  0.65815105  1
  Cr  Cr35  1  0.15719053  0.82543718  0.82594820  1
  Cr  Cr36  1  0.49157470  0.15839747  0.48944547  1
  Cr  Cr37  1  0.32470061  0.99129649  0.65851927  1
  Cr  Cr38  1  0.49021707  0.15718644  0.82567910  1
  Cr  Cr39  1  0.49080617  0.49028485  0.49043197  1
  Cr  Cr40  1  0.32475965  0.32404318  0.65780153  1
  Cr  Cr41  1  0.49116216  0.49136631  0.82481278  1
  Cr  Cr42  1  0.49270658  0.82584605  0.49027174  1
  Cr  Cr43  1  0.32425018  0.65919108  0.65815130  1
  Cr  Cr44  1  0.49051055  0.82618149  0.82619078  1
  Cr  Cr45  1  0.82353869  0.15724399  0.49028030  1
  Cr  Cr46  1  0.65774461  -0.00812403  0.65687136  1
  Cr  Cr47  1  0.82584580  0.15669723  0.82594087  1
  Cr  Cr48  1  0.82569563  0.49279453  0.49346654  1
  Cr  Cr49  1  0.65842490  0.32401484  0.66012811  1
  Cr  Cr50  1  0.82590858  0.49277334  0.82353200  1
  Cr  Cr51  1  0.82470806  0.82466027  0.49135017  1
  Cr  Cr52  1  0.65787370  0.65864590  0.65914318  1
  Cr  Cr53  1  0.82668614  0.82476491  0.82449733  1
" 