1150,Ni91Cr9_1,-202.87074823218, 187.4743048039,Ni91Cr9,"# generated using pymatgen
 data_Cr49Ni5
_symmetry_space_group_name_H-M   'P 1'
_cell_length_a   7.59415029
_cell_length_b   7.59415029
_cell_length_c   10.73975033
_cell_angle_alpha   90.00000000
_cell_angle_beta   90.00000000
_cell_angle_gamma   90.00000000
_symmetry_Int_Tables_number   1
_chemical_formula_structural   Cr49Ni5
_chemical_formula_sum   'Cr49 Ni5'
_cell_volume   619.37341553
_cell_formula_units_Z   1
loop_
 _symmetry_equiv_pos_site_id
 _symmetry_equiv_pos_as_xyz
  1  'x, y, z'
loop_
 _atom_site_type_symbol
 _atom_site_label
 _atom_site_symmetry_multiplicity
 _atom_site_fract_x
 _atom_site_fract_y
 _atom_site_fract_z
 _atom_site_occupancy
  Cr  Cr0  1  -0.00788236  0.99055095  0.99154982  1
  Cr  Cr1  1  0.15896744  0.15966100  0.15844624  1
  Cr  Cr2  1  0.99151568  -0.00814243  0.32438471  1
  Cr  Cr3  1  -0.00738455  0.32507530  -0.00789899  1
  Cr  Cr4  1  0.15896172  0.49026714  0.15728368  1
  Cr  Cr5  1  0.99150985  0.32439009  0.32519647  1
  Cr  Cr6  1  -0.00730445  0.65926867  0.99061641  1
  Cr  Cr7  1  0.15841446  0.82496620  0.15859805  1
  Cr  Cr8  1  -0.00790393  0.65864695  0.32461471  1
  Cr  Cr9  1  0.32496057  -0.00727114  0.99002029  1
  Cr  Cr10  1  0.49061428  0.15850222  0.15688338  1
  Cr  Cr11  1  0.32461695  0.99128335  0.32501534  1
  Ni  Ni12  1  0.32598956  0.32422925  0.99104614  1
  Cr  Cr13  1  0.49062003  0.49142617  0.15768344  1
  Cr  Cr14  1  0.32575581  0.32609764  0.32534833  1
  Cr  Cr15  1  0.32383591  0.65763382  0.99154957  1
  Cr  Cr16  1  0.49232701  0.82496578  0.15899960  1
  Cr  Cr17  1  0.32574535  0.65751299  0.32575032  1
  Cr  Cr18  1  0.65781781  -0.00718920  0.99154963  1
  Cr  Cr19  1  0.82531283  0.15795508  0.15899923  1
  Cr  Cr20  1  0.65876230  -0.00813070  0.32403264  1
  Cr  Cr21  1  0.65618367  0.32395166  0.99061730  1
  Cr  Cr22  1  0.82531230  0.49197964  0.15783629  1
  Cr  Cr23  1  0.65762878  0.32551734  0.32633071  1
  Cr  Cr24  1  0.65836428  0.65813191  -0.00789858  1
  Cr  Cr25  1  0.82415296  0.82495993  0.15864717  1
  Cr  Cr26  1  0.65705355  0.65750736  0.32575007  1
  Cr  Cr27  1  0.15878280  0.15791387  0.49171330  1
  Cr  Cr28  1  -0.00625322  0.99073151  0.65896075  1
  Cr  Cr29  1  0.16118675  0.15743546  0.82473381  1
  Cr  Cr30  1  0.15928536  0.49105073  0.49116184  1
  Cr  Cr31  1  0.99098495  0.32491498  0.65759747  1
  Cr  Cr32  1  0.15843382  0.49189895  0.82644720  1
  Cr  Cr33  1  0.15935682  0.82593005  0.49269400  1
  Cr  Cr34  1  -0.00730203  0.65924862  0.65966597  1
  Ni  Ni35  1  0.15911198  0.82611658  0.82403783  1
  Cr  Cr36  1  0.49061766  0.15838467  0.49269276  1
  Ni  Ni37  1  0.32481845  0.99148638  0.66005574  1
  Ni  Ni38  1  0.48969625  0.15798115  0.82511274  1
  Ni  Ni39  1  0.49187261  0.49167700  0.49124036  1
  Cr  Cr40  1  0.32687710  0.32387266  0.65799565  1
  Cr  Cr41  1  0.49114670  0.48980109  0.82604671  1
  Cr  Cr42  1  0.49120255  0.82429525  0.49171225  1
  Cr  Cr43  1  0.32461764  0.65974224  0.65759714  1
  Cr  Cr44  1  0.49009939  0.82719187  0.82418418  1
  Cr  Cr45  1  0.82549593  0.15845923  0.49116118  1
  Cr  Cr46  1  0.65653572  -0.00700640  0.65931064  1
  Cr  Cr47  1  0.82368412  0.15848061  0.82473372  1
  Cr  Cr48  1  0.82386331  0.49163653  0.49209524  1
  Cr  Cr49  1  0.65703142  0.32491909  0.65794719  1
  Cr  Cr50  1  0.82531222  0.49197935  0.82496325  1
  Cr  Cr51  1  0.82433564  0.82479927  0.49116162  1
  Cr  Cr52  1  0.65757862  0.65698083  0.65704328  1
  Cr  Cr53  1  0.82578282  0.82443464  0.82508539  1
" 