1638,Ni91Fe3Cr5_19,-237.458441753925, 172.2166290864,Ni91Fe3Cr5,"# generated using pymatgen
 data_Cr4FeNi49
_symmetry_space_group_name_H-M   'P 1'
_cell_length_a   7.46249089
_cell_length_b   7.46249089
_cell_length_c   10.55355582
_cell_angle_alpha   90.00000000
_cell_angle_beta   90.00000000
_cell_angle_gamma   90.00000000
_symmetry_Int_Tables_number   1
_chemical_formula_structural   Cr4FeNi49
_chemical_formula_sum   'Cr4 Fe1 Ni49'
_cell_volume   587.71454589
_cell_formula_units_Z   1
loop_
 _symmetry_equiv_pos_site_id
 _symmetry_equiv_pos_as_xyz
  1  'x, y, z'
loop_
 _atom_site_type_symbol
 _atom_site_label
 _atom_site_symmetry_multiplicity
 _atom_site_fract_x
 _atom_site_fract_y
 _atom_site_fract_z
 _atom_site_occupancy
  Ni  Ni0  1  1.00027965  0.00055432  0.99994249  1
  Ni  Ni1  1  0.16731629  0.16699109  0.16662400  1
  Ni  Ni2  1  0.00235024  0.00162504  0.33281108  1
  Ni  Ni3  1  0.99879468  0.33231279  0.00162059  1
  Ni  Ni4  1  0.16716967  0.50007058  0.16745142  1
  Ni  Ni5  1  0.99970456  0.33308460  0.33371096  1
  Ni  Ni6  1  0.99911827  0.66808369  0.00141238  1
  Ni  Ni7  1  0.16695673  0.83385943  0.16689712  1
  Ni  Ni8  1  0.00091706  0.66632461  0.33289654  1
  Ni  Ni9  1  0.33348335  1.00019438  0.99967827  1
  Ni  Ni10  1  0.50000922  0.16708496  0.16693884  1
  Ni  Ni11  1  0.33262673  1.00028963  0.33420673  1
  Ni  Ni12  1  0.33483348  0.33236710  0.00150500  1
  Ni  Ni13  1  0.50031096  0.50011669  0.16663573  1
  Ni  Ni14  1  0.33398037  0.33326030  0.33370610  1
  Ni  Ni15  1  0.33479940  0.66831710  0.00187808  1
  Ni  Ni16  1  0.50037435  0.83374192  0.16717981  1
  Ni  Ni17  1  0.33399475  0.66736313  0.33352439  1
  Ni  Ni18  1  0.66715190  0.00052662  0.00131892  1
  Ni  Ni19  1  0.83356201  0.16693122  0.16716598  1
  Fe  Fe20  1  0.66620339  0.00155353  0.33210484  1
  Ni  Ni21  1  0.66735712  0.33360632  0.99990795  1
  Ni  Ni22  1  0.83344321  0.50047857  0.16688456  1
  Ni  Ni23  1  0.66722125  0.33449639  0.33392875  1
  Ni  Ni24  1  0.66699937  0.66680968  0.99971183  1
  Ni  Ni25  1  0.83355922  0.83353507  0.16673292  1
  Ni  Ni26  1  0.66589479  0.66478345  0.33307922  1
  Ni  Ni27  1  0.16717220  0.16705561  0.50086770  1
  Ni  Ni28  1  0.00270597  0.00158750  0.66800068  1
  Ni  Ni29  1  0.16724147  0.16556444  0.83337054  1
  Ni  Ni30  1  0.16611182  0.49907259  0.49879123  1
  Ni  Ni31  1  0.99894405  0.33229117  0.66562401  1
  Cr  Cr32  1  0.16634440  0.49847973  0.83518552  1
  Ni  Ni33  1  0.16737573  0.83480515  0.49979951  1
  Ni  Ni34  1  0.99874150  0.66704404  0.66668502  1
  Ni  Ni35  1  0.16591679  0.83607462  0.83423095  1
  Ni  Ni36  1  0.49917334  0.16806618  0.49953414  1
  Ni  Ni37  1  0.33186576  0.00194166  0.66699423  1
  Ni  Ni38  1  0.49932848  0.16791119  0.83444475  1
  Ni  Ni39  1  0.50125788  0.49909416  0.49981379  1
  Ni  Ni40  1  0.33484491  0.33091972  0.66580228  1
  Ni  Ni41  1  0.50271858  0.49896202  0.83446597  1
  Ni  Ni42  1  0.49884043  0.83381290  0.49838305  1
  Cr  Cr43  1  0.33511211  0.66848007  0.66557165  1
  Ni  Ni44  1  0.50055928  0.83394736  0.83539931  1
  Ni  Ni45  1  0.83454475  0.16949070  0.49934050  1
  Cr  Cr46  1  0.66564706  0.00145933  0.66755984  1
  Ni  Ni47  1  0.83439303  0.16778997  0.83445578  1
  Ni  Ni48  1  0.83350943  0.49890629  0.50085302  1
  Ni  Ni49  1  0.66718436  0.33509875  0.66698923  1
  Ni  Ni50  1  0.83219812  0.50029671  0.83313158  1
  Cr  Cr51  1  0.83436564  0.83286342  0.49903869  1
  Ni  Ni52  1  0.66757641  0.66425862  0.66801568  1
  Ni  Ni53  1  0.83440113  0.83285053  0.83468348  1
" 