2221,Ni91Fe3Cr5_7,-237.437372594549, 173.192310481174,Ni91Fe3Cr5,"# generated using pymatgen
 data_Cr4FeNi49
_symmetry_space_group_name_H-M   'P 1'
_cell_length_a   7.46316115
_cell_length_b   7.46316115
_cell_length_c   10.55450372
_cell_angle_alpha   90.00000000
_cell_angle_beta   90.00000000
_cell_angle_gamma   90.00000000
_symmetry_Int_Tables_number   1
_chemical_formula_structural   Cr4FeNi49
_chemical_formula_sum   'Cr4 Fe1 Ni49'
_cell_volume   587.87292106
_cell_formula_units_Z   1
loop_
 _symmetry_equiv_pos_site_id
 _symmetry_equiv_pos_as_xyz
  1  'x, y, z'
loop_
 _atom_site_type_symbol
 _atom_site_label
 _atom_site_symmetry_multiplicity
 _atom_site_fract_x
 _atom_site_fract_y
 _atom_site_fract_z
 _atom_site_occupancy
  Ni  Ni0  1  0.00041490  1.00023858  0.00070038  1
  Ni  Ni1  1  0.16710644  0.16707880  0.16755594  1
  Ni  Ni2  1  0.00098871  0.00098322  0.33311014  1
  Ni  Ni3  1  0.00040436  0.33363584  0.00043274  1
  Ni  Ni4  1  0.16794813  0.49920377  0.16586235  1
  Ni  Ni5  1  0.99831065  0.33221686  0.33158451  1
  Ni  Ni6  1  0.00058988  0.66689523  0.99999967  1
  Ni  Ni7  1  0.16831293  0.83454183  0.16684153  1
  Cr  Cr8  1  0.99918007  0.66839839  0.33232729  1
  Ni  Ni9  1  0.33348789  0.00043072  0.00042589  1
  Ni  Ni10  1  0.49937783  0.16774260  0.16607140  1
  Ni  Ni11  1  0.33324875  0.99941569  0.33280574  1
  Ni  Ni12  1  0.33377615  0.33374017  1.00020199  1
  Ni  Ni13  1  0.50053906  0.50051563  0.16810062  1
  Ni  Ni14  1  0.33577903  0.33346407  0.33166450  1
  Ni  Ni15  1  0.33341824  0.66662173  0.00044032  1
  Ni  Ni16  1  0.49951323  0.83250930  0.16603602  1
  Ni  Ni17  1  0.33595830  0.66788891  0.33287422  1
  Ni  Ni18  1  0.66686791  0.00061825  0.99998326  1
  Ni  Ni19  1  0.83433294  0.16810974  0.16662409  1
  Cr  Cr20  1  0.66732336  1.00024953  0.33327825  1
  Ni  Ni21  1  0.66659704  0.33356695  0.00043373  1
  Ni  Ni22  1  0.83232626  0.49931216  0.16623662  1
  Ni  Ni23  1  0.66674448  0.33497515  0.33398666  1
  Ni  Ni24  1  0.66678410  0.66660620  0.00069439  1
  Ni  Ni25  1  0.83300661  0.83332781  0.16519374  1
  Ni  Ni26  1  0.66517200  0.66517238  0.33376633  1
  Cr  Cr27  1  0.16713785  0.16588810  0.49991110  1
  Ni  Ni28  1  0.99925021  0.99918696  0.66700625  1
  Ni  Ni29  1  0.16700763  0.16700613  0.83330857  1
  Cr  Cr30  1  0.16718415  0.50043140  0.50134654  1
  Ni  Ni31  1  0.99833242  0.33373937  0.66880480  1
  Ni  Ni32  1  0.16689849  0.50026810  0.83364839  1
  Ni  Ni33  1  0.16859891  0.83403755  0.50101532  1
  Ni  Ni34  1  0.99955507  0.66783746  0.66800978  1
  Ni  Ni35  1  0.16719509  0.83351644  0.83286397  1
  Ni  Ni36  1  0.50102444  0.16694481  0.50118849  1
  Ni  Ni37  1  0.33474418  0.99942246  0.66755919  1
  Ni  Ni38  1  0.50044803  0.16668752  0.83346978  1
  Fe  Fe39  1  0.50178683  0.50051066  0.50047643  1
  Ni  Ni40  1  0.33563655  0.33343195  0.66900185  1
  Ni  Ni41  1  0.50060745  0.50060892  0.83271454  1
  Ni  Ni42  1  0.49960075  0.83326280  0.50097653  1
  Ni  Ni43  1  0.33429599  0.66800504  0.66761764  1
  Ni  Ni44  1  0.50060822  0.83348618  0.83370393  1
  Ni  Ni45  1  0.83231294  0.16832332  0.50101157  1
  Ni  Ni46  1  0.66677030  0.00049700  0.66717908  1
  Ni  Ni47  1  0.83332197  0.16700741  0.83311718  1
  Ni  Ni48  1  0.83137841  0.49939255  0.50099044  1
  Ni  Ni49  1  0.66687056  0.33332529  0.66646699  1
  Ni  Ni50  1  0.83331881  0.50042092  0.83346806  1
  Ni  Ni51  1  0.83266879  0.83304976  0.50214981  1
  Ni  Ni52  1  0.66702243  0.66696819  0.66647006  1
  Ni  Ni53  1  0.83297462  0.83334455  0.83335170  1
" 