1404,Ni91Cr9_7,-202.842061160046, 187.867070456121,Ni91Cr9,"# generated using pymatgen
 data_Cr49Ni5
_symmetry_space_group_name_H-M   'P 1'
_cell_length_a   7.59483786
_cell_length_b   7.59483786
_cell_length_c   10.74072270
_cell_angle_alpha   90.00000000
_cell_angle_beta   90.00000000
_cell_angle_gamma   90.00000000
_symmetry_Int_Tables_number   1
_chemical_formula_structural   Cr49Ni5
_chemical_formula_sum   'Cr49 Ni5'
_cell_volume   619.54166278
_cell_formula_units_Z   1
loop_
 _symmetry_equiv_pos_site_id
 _symmetry_equiv_pos_as_xyz
  1  'x, y, z'
loop_
 _atom_site_type_symbol
 _atom_site_label
 _atom_site_symmetry_multiplicity
 _atom_site_fract_x
 _atom_site_fract_y
 _atom_site_fract_z
 _atom_site_occupancy
  Cr  Cr0  1  -0.00807433  -0.00829770  -0.00800862  1
  Cr  Cr1  1  0.15810652  0.15933900  0.15812729  1
  Cr  Cr2  1  0.99093829  -0.00672555  0.32289116  1
  Cr  Cr3  1  0.98983352  0.32359045  -0.00739230  1
  Cr  Cr4  1  0.15917404  0.49058085  0.15813198  1
  Cr  Cr5  1  0.99013361  0.32361908  0.32513038  1
  Cr  Cr6  1  -0.00742081  0.65947838  0.98987517  1
  Cr  Cr7  1  0.15785493  0.82484013  0.15858724  1
  Cr  Cr8  1  0.99157873  0.65788362  0.32499555  1
  Cr  Cr9  1  0.32368706  0.99142778  0.99064227  1
  Cr  Cr10  1  0.49229947  0.15980318  0.15606884  1
  Cr  Cr11  1  0.32495179  0.99125842  0.32500934  1
  Ni  Ni12  1  0.32729039  0.32508696  -0.00830028  1
  Cr  Cr13  1  0.49118102  0.48996269  0.15605513  1
  Cr  Cr14  1  0.32509984  0.32490729  0.32598004  1
  Cr  Cr15  1  0.32437158  0.65844386  0.99032884  1
  Cr  Cr16  1  0.49199039  0.82499397  0.15946719  1
  Cr  Cr17  1  0.32561439  0.65858949  0.32531793  1
  Cr  Cr18  1  0.65919822  -0.00594935  -0.00711490  1
  Ni  Ni19  1  0.82366397  0.15946487  0.15734456  1
  Cr  Cr20  1  0.65887210  -0.00727513  0.32410485  1
  Ni  Ni21  1  0.65699293  0.32379961  -0.00711137  1
  Cr  Cr22  1  0.82436454  0.49023365  0.15734797  1
  Cr  Cr23  1  0.65951124  0.32431063  0.32393377  1
  Cr  Cr24  1  0.65786631  0.65634856  -0.00798519  1
  Cr  Cr25  1  0.82491612  0.82610736  0.15905293  1
  Cr  Cr26  1  0.65757041  0.65774969  0.32499815  1
  Cr  Cr27  1  0.15859861  0.15879501  0.49118578  1
  Cr  Cr28  1  0.99150082  0.99133541  0.65984783  1
  Cr  Cr29  1  0.15962073  0.15814429  0.82547689  1
  Cr  Cr30  1  0.15790749  0.49103394  0.49086052  1
  Cr  Cr31  1  0.99118357  0.32486069  0.65700305  1
  Cr  Cr32  1  0.15890956  0.49166892  0.82578360  1
  Cr  Cr33  1  0.15776050  0.82493596  0.49092740  1
  Cr  Cr34  1  -0.00737929  0.65857400  0.65985477  1
  Ni  Ni35  1  0.15824483  0.82475406  0.82479985  1
  Cr  Cr36  1  0.49189309  0.15691975  0.49329483  1
  Cr  Cr37  1  0.32544953  0.99054075  0.65908596  1
  Cr  Cr38  1  0.49212152  0.15912531  0.82544771  1
  Cr  Cr39  1  0.49125156  0.49157993  0.49118689  1
  Cr  Cr40  1  0.32497889  0.32500142  0.65750399  1
  Cr  Cr41  1  0.49149073  0.48934147  0.82754862  1
  Cr  Cr42  1  0.49324143  0.82624663  0.49180268  1
  Cr  Cr43  1  0.32439080  0.65922489  0.65908963  1
  Cr  Cr44  1  0.49187297  0.82627696  0.82350061  1
  Cr  Cr45  1  0.82428830  0.15679655  0.49279128  1
  Ni  Ni46  1  0.65831967  0.99153312  0.65783355  1
  Cr  Cr47  1  0.82300425  0.15785026  0.82457598  1
  Cr  Cr48  1  0.82560017  0.49241376  0.49192411  1
  Cr  Cr49  1  0.65858136  0.32378638  0.65793405  1
  Cr  Cr50  1  0.82430322  0.49132572  0.82548085  1
  Cr  Cr51  1  0.82376868  0.82553882  0.49253797  1
  Cr  Cr52  1  0.65776489  0.65897478  0.65776060  1
  Cr  Cr53  1  0.82546561  0.82554919  0.82318284  1
" 