4914,Ni91Cr9_9,-202.791179737714, 186.553416361172,Ni91Cr9,"# generated using pymatgen
 data_Cr49Ni5
_symmetry_space_group_name_H-M   'P 1'
_cell_length_a   7.59610350
_cell_length_b   7.59610350
_cell_length_c   10.74251259
_cell_angle_alpha   90.00000000
_cell_angle_beta   90.00000000
_cell_angle_gamma   90.00000000
_symmetry_Int_Tables_number   1
_chemical_formula_structural   Cr49Ni5
_chemical_formula_sum   'Cr49 Ni5'
_cell_volume   619.85144534
_cell_formula_units_Z   1
loop_
 _symmetry_equiv_pos_site_id
 _symmetry_equiv_pos_as_xyz
  1  'x, y, z'
loop_
 _atom_site_type_symbol
 _atom_site_label
 _atom_site_symmetry_multiplicity
 _atom_site_fract_x
 _atom_site_fract_y
 _atom_site_fract_z
 _atom_site_occupancy
  Cr  Cr0  1  -0.00806869  -0.00771560  -0.00813599  1
  Cr  Cr1  1  0.15898134  0.15932824  0.15860986  1
  Cr  Cr2  1  -0.00764420  0.99110993  0.32527949  1
  Cr  Cr3  1  0.99073694  0.32453421  -0.00813530  1
  Cr  Cr4  1  0.15897541  0.48999291  0.15897319  1
  Cr  Cr5  1  -0.00832767  0.32472296  0.32352546  1
  Cr  Cr6  1  0.99087105  0.65769574  0.99145285  1
  Cr  Cr7  1  0.15780754  0.82519307  0.15822380  1
  Cr  Cr8  1  -0.00705028  0.65868306  0.32628470  1
  Cr  Cr9  1  0.32464984  0.99050592  0.99126817  1
  Cr  Cr10  1  0.49010907  0.15873609  0.15956777  1
  Cr  Cr11  1  0.32404033  0.99098729  0.32527693  1
  Cr  Cr12  1  0.32465848  0.32512744  0.99126846  1
  Cr  Cr13  1  0.49126636  0.49173525  0.15840812  1
  Ni  Ni14  1  0.32498241  0.32464089  0.32487250  1
  Cr  Cr15  1  0.32631548  0.65888171  -0.00813543  1
  Cr  Cr16  1  0.49302660  0.82404327  0.15665170  1
  Cr  Cr17  1  0.32403895  0.65820438  0.32527856  1
  Cr  Cr18  1  0.65793341  0.99063843  0.99126820  1
  Cr  Cr19  1  0.82542425  0.15756955  0.15840890  1
  Cr  Cr20  1  0.65812195  -0.00773435  0.32531226  1
  Cr  Cr21  1  0.65911942  0.32619858  0.99126815  1
  Cr  Cr22  1  0.82427507  0.49290885  0.15724979  1
  Cr  Cr23  1  0.65764647  0.32472246  0.32507786  1
  Ni  Ni24  1  0.65822737  0.65836313  -0.00834744  1
  Cr  Cr25  1  0.82368438  0.82403798  0.15701606  1
  Cr  Cr26  1  0.65752862  0.65752791  0.32430630  1
  Cr  Cr27  1  0.16012049  0.15865527  0.49114568  1
  Cr  Cr28  1  -0.00764360  0.98964401  0.65737301  1
  Cr  Cr29  1  0.15932888  0.15932881  0.82475761  1
  Cr  Cr30  1  0.15896679  0.49181315  0.49230241  1
  Cr  Cr31  1  -0.00833072  0.32619375  0.65912508  1
  Cr  Cr32  1  0.15817659  0.49079233  0.82323943  1
  Ni  Ni33  1  0.15697987  0.82394247  0.49240682  1
  Ni  Ni34  1  -0.00736896  0.65899303  0.65722389  1
  Cr  Cr35  1  0.15700958  0.82439441  0.82398979  1
  Cr  Cr36  1  0.48984838  0.15971884  0.49150742  1
  Cr  Cr37  1  0.32422822  0.99117761  0.65797030  1
  Cr  Cr38  1  0.49010711  0.15873823  0.82343833  1
  Cr  Cr39  1  0.48985132  0.48960136  0.49114533  1
  Ni  Ni40  1  0.32470438  0.32491899  0.65803753  1
  Cr  Cr41  1  0.49126328  0.49138627  0.82495911  1
  Cr  Cr42  1  0.49110237  0.82519307  0.49114702  1
  Cr  Cr43  1  0.32256901  0.65820848  0.65737355  1
  Cr  Cr44  1  0.49302564  0.82439150  0.82671590  1
  Cr  Cr45  1  0.82454176  0.15741001  0.49114662  1
  Cr  Cr46  1  0.65793494  -0.00754768  0.65793443  1
  Cr  Cr47  1  0.82507709  0.15756803  0.82496038  1
  Cr  Cr48  1  0.82569091  0.49306652  0.49230494  1
  Cr  Cr49  1  0.65745683  0.32453520  0.65816942  1
  Cr  Cr50  1  0.82507438  0.49370233  0.82496312  1
  Cr  Cr51  1  0.82675386  0.82403785  0.49230363  1
  Cr  Cr52  1  0.65899579  0.65752833  0.65834487  1
  Cr  Cr53  1  0.82448271  0.82324532  0.82519626  1
" 