6013,Ni91Fe3Cr5_18,-237.452000898215, 172.697982588352,Ni91Fe3Cr5,"# generated using pymatgen
 data_Cr4FeNi49
_symmetry_space_group_name_H-M   'P 1'
_cell_length_a   7.46280451
_cell_length_b   7.46280451
_cell_length_c   10.55399935
_cell_angle_alpha   90.00000000
_cell_angle_beta   90.00000000
_cell_angle_gamma   90.00000000
_symmetry_Int_Tables_number   1
_chemical_formula_structural   Cr4FeNi49
_chemical_formula_sum   'Cr4 Fe1 Ni49'
_cell_volume   587.78864711
_cell_formula_units_Z   1
loop_
 _symmetry_equiv_pos_site_id
 _symmetry_equiv_pos_as_xyz
  1  'x, y, z'
loop_
 _atom_site_type_symbol
 _atom_site_label
 _atom_site_symmetry_multiplicity
 _atom_site_fract_x
 _atom_site_fract_y
 _atom_site_fract_z
 _atom_site_occupancy
  Ni  Ni0  1  0.99846584  0.00032919  0.00040879  1
  Ni  Ni1  1  0.16580685  0.16824459  0.16785853  1
  Ni  Ni2  1  0.99887305  0.99952597  0.33235999  1
  Ni  Ni3  1  0.99999353  0.33372404  1.00021417  1
  Ni  Ni4  1  0.16551178  0.49875304  0.16576099  1
  Ni  Ni5  1  0.99873309  0.33452572  0.33279779  1
  Ni  Ni6  1  1.00021994  0.66682245  0.00071776  1
  Ni  Ni7  1  0.16301395  0.83383748  0.16687792  1
  Ni  Ni8  1  0.99863352  0.66684106  0.33363830  1
  Cr  Cr9  1  0.33242066  0.00118565  0.99989478  1
  Ni  Ni10  1  0.50123781  0.16960018  0.16829196  1
  Ni  Ni11  1  0.33362737  0.00170758  0.33382674  1
  Ni  Ni12  1  0.33369243  0.33522912  0.00071882  1
  Ni  Ni13  1  0.50171478  0.49737033  0.16550413  1
  Ni  Ni14  1  0.33473380  0.33315054  0.33231174  1
  Ni  Ni15  1  0.33236496  0.66423113  0.99880832  1
  Cr  Cr16  1  0.50354087  0.83320207  0.16634749  1
  Cr  Cr17  1  0.33235539  0.66580567  0.33454767  1
  Ni  Ni18  1  0.66970599  0.00161214  0.99932656  1
  Ni  Ni19  1  0.83380289  0.16707249  0.16625011  1
  Ni  Ni20  1  0.66835174  0.00169631  0.33448638  1
  Ni  Ni21  1  0.66713637  0.33359487  0.00047961  1
  Ni  Ni22  1  0.83363956  0.50040283  0.16718053  1
  Ni  Ni23  1  0.66738453  0.33340599  0.33364469  1
  Ni  Ni24  1  0.66826063  0.66568365  0.99957293  1
  Ni  Ni25  1  0.83523446  0.83337257  0.16695895  1
  Ni  Ni26  1  0.66962634  0.66574452  0.33448709  1
  Cr  Cr27  1  0.16683577  0.16748991  0.50020701  1
  Ni  Ni28  1  0.99911497  0.99920433  0.66810757  1
  Ni  Ni29  1  0.16667462  0.16811726  0.83295165  1
  Ni  Ni30  1  0.16564809  0.50049961  0.50152076  1
  Ni  Ni31  1  0.99894025  0.33478120  0.66786203  1
  Ni  Ni32  1  0.16628123  0.49954714  0.83355469  1
  Ni  Ni33  1  0.16559805  0.83338581  0.50132921  1
  Ni  Ni34  1  1.00018098  0.66691712  0.66647181  1
  Ni  Ni35  1  0.16533352  0.83313283  0.83269885  1
  Ni  Ni36  1  0.50172272  0.16698693  0.49988189  1
  Ni  Ni37  1  0.33459642  0.99926211  0.66735186  1
  Ni  Ni38  1  0.50033546  0.16797708  0.83273230  1
  Ni  Ni39  1  0.50161331  0.49914491  0.50131365  1
  Ni  Ni40  1  0.33480547  0.33469909  0.66780529  1
  Ni  Ni41  1  0.50096490  0.49987134  0.83400732  1
  Ni  Ni42  1  0.50179255  0.83471265  0.50174508  1
  Ni  Ni43  1  0.33354746  0.66692085  0.66747834  1
  Ni  Ni44  1  0.50205047  0.83297285  0.83251734  1
  Ni  Ni45  1  0.83219955  0.16697294  0.50105976  1
  Ni  Ni46  1  0.66705611  0.00044942  0.66699043  1
  Fe  Fe47  1  0.83366889  0.16738812  0.83348531  1
  Ni  Ni48  1  0.83363072  0.50040519  0.50012380  1
  Ni  Ni49  1  0.66700680  0.33367118  0.66673082  1
  Ni  Ni50  1  0.83363719  0.50129605  0.83353606  1
  Ni  Ni51  1  0.83343979  0.83347190  0.49987665  1
  Ni  Ni52  1  0.66713282  0.66675341  0.66671803  1
  Ni  Ni53  1  0.83346105  0.83264886  0.83402107  1
" 