7974,Ni91Fe3Cr5_17,-237.410815014609, 172.133415157407,Ni91Fe3Cr5,"# generated using pymatgen
 data_Cr4FeNi49
_symmetry_space_group_name_H-M   'P 1'
_cell_length_a   7.46220260
_cell_length_b   7.46220260
_cell_length_c   10.55314812
_cell_angle_alpha   90.00000000
_cell_angle_beta   90.00000000
_cell_angle_gamma   90.00000000
_symmetry_Int_Tables_number   1
_chemical_formula_structural   Cr4FeNi49
_chemical_formula_sum   'Cr4 Fe1 Ni49'
_cell_volume   587.64643476
_cell_formula_units_Z   1
loop_
 _symmetry_equiv_pos_site_id
 _symmetry_equiv_pos_as_xyz
  1  'x, y, z'
loop_
 _atom_site_type_symbol
 _atom_site_label
 _atom_site_symmetry_multiplicity
 _atom_site_fract_x
 _atom_site_fract_y
 _atom_site_fract_z
 _atom_site_occupancy
  Ni  Ni0  1  1.00029063  0.00053805  1.00027929  1
  Ni  Ni1  1  0.16601222  0.16794092  0.16579054  1
  Ni  Ni2  1  0.99874856  0.00054329  0.33378499  1
  Ni  Ni3  1  0.99924875  0.33224987  0.00079017  1
  Ni  Ni4  1  0.16657168  0.50069021  0.16738502  1
  Ni  Ni5  1  0.00034290  0.33335449  0.33412673  1
  Ni  Ni6  1  0.99925143  0.66818936  0.00101902  1
  Ni  Ni7  1  0.16573454  0.83238363  0.16584740  1
  Ni  Ni8  1  0.00038200  0.66708932  0.33390191  1
  Ni  Ni9  1  0.33255579  0.99925353  1.00014059  1
  Ni  Ni10  1  0.50144636  0.16774489  0.16606625  1
  Cr  Cr11  1  0.33229686  0.99910074  0.33301126  1
  Ni  Ni12  1  0.33366470  0.33365683  0.00243898  1
  Ni  Ni13  1  0.50040885  0.50035752  0.16694525  1
  Ni  Ni14  1  0.33261028  0.33629383  0.33275930  1
  Ni  Ni15  1  0.33496692  0.66803299  0.00140607  1
  Ni  Ni16  1  0.50144432  0.83286307  0.16606770  1
  Ni  Ni17  1  0.33389604  0.66529768  0.33378273  1
  Ni  Ni18  1  0.66805883  0.99928941  0.00147613  1
  Ni  Ni19  1  0.83351285  0.16689249  0.16719740  1
  Ni  Ni20  1  0.66970940  0.99919202  0.33269498  1
  Ni  Ni21  1  0.66801404  0.33471138  0.00073349  1
  Ni  Ni22  1  0.83401384  0.50067918  0.16671569  1
  Ni  Ni23  1  0.66804564  0.33487477  0.33300751  1
  Ni  Ni24  1  0.66669880  0.66699156  0.99964780  1
  Ni  Ni25  1  0.83384759  0.83341617  0.16719277  1
  Ni  Ni26  1  0.66670747  0.66688783  0.33412849  1
  Ni  Ni27  1  0.16437482  0.16810102  0.50161561  1
  Ni  Ni28  1  0.99960872  0.00043993  0.66695848  1
  Ni  Ni29  1  0.16527119  0.16549736  0.83346129  1
  Ni  Ni30  1  0.16666877  0.50062952  0.49981097  1
  Ni  Ni31  1  0.99962666  0.33216857  0.66616061  1
  Cr  Cr32  1  0.16630220  0.50076053  0.83448519  1
  Ni  Ni33  1  0.16553651  0.83219936  0.50139001  1
  Ni  Ni34  1  0.99963123  0.66833309  0.66616363  1
  Ni  Ni35  1  0.16657506  0.83483592  0.83368420  1
  Cr  Cr36  1  0.50227138  0.16779160  0.50082391  1
  Fe  Fe37  1  0.33194811  0.99839059  0.66729482  1
  Cr  Cr38  1  0.50046636  0.16722132  0.83379325  1
  Ni  Ni39  1  0.50029349  0.50180554  0.50047802  1
  Ni  Ni40  1  0.33251350  0.33569986  0.66586650  1
  Ni  Ni41  1  0.50167439  0.50187027  0.83351251  1
  Ni  Ni42  1  0.50164581  0.83104180  0.50132941  1
  Ni  Ni43  1  0.33474630  0.66721978  0.66593570  1
  Ni  Ni44  1  0.50060814  0.83219947  0.83350326  1
  Ni  Ni45  1  0.83511351  0.16676094  0.50024951  1
  Ni  Ni46  1  0.67014927  0.99818741  0.66677092  1
  Ni  Ni47  1  0.83490643  0.16667472  0.83352666  1
  Ni  Ni48  1  0.83399812  0.50067796  0.50082675  1
  Ni  Ni49  1  0.66871998  0.33539558  0.66713312  1
  Ni  Ni50  1  0.83236557  0.50068074  0.83343107  1
  Ni  Ni51  1  0.83377382  0.83351745  0.50002412  1
  Ni  Ni52  1  0.66649223  0.66730222  0.66717910  1
  Ni  Ni53  1  0.83376749  0.83361282  0.83378431  1
" 