591,Ni92Fe5Cr2_17,-238.595205913379, 177.9943617191,Ni92Fe5Cr2,"# generated using pymatgen
 data_Cr3Fe2Ni49
_symmetry_space_group_name_H-M   'P 1'
_cell_length_a   7.45787235
_cell_length_b   7.45787235
_cell_length_c   10.54702423
_cell_angle_alpha   90.00000000
_cell_angle_beta   90.00000000
_cell_angle_gamma   90.00000000
_symmetry_Int_Tables_number   1
_chemical_formula_structural   Cr3Fe2Ni49
_chemical_formula_sum   'Cr3 Fe2 Ni49'
_cell_volume   586.62401153
_cell_formula_units_Z   1
loop_
 _symmetry_equiv_pos_site_id
 _symmetry_equiv_pos_as_xyz
  1  'x, y, z'
loop_
 _atom_site_type_symbol
 _atom_site_label
 _atom_site_symmetry_multiplicity
 _atom_site_fract_x
 _atom_site_fract_y
 _atom_site_fract_z
 _atom_site_occupancy
  Fe  Fe0  1  1.00002948  1.00018904  0.00079549  1
  Ni  Ni1  1  0.16713405  0.16669402  0.16694787  1
  Ni  Ni2  1  0.00092733  0.00091850  0.33312480  1
  Ni  Ni3  1  1.00053044  0.33469098  1.00032650  1
  Ni  Ni4  1  0.16717270  0.50071585  0.16778064  1
  Ni  Ni5  1  0.00086752  0.33308520  0.33347697  1
  Ni  Ni6  1  0.00067311  0.66627131  0.00109438  1
  Ni  Ni7  1  0.16740186  0.83432195  0.16680196  1
  Ni  Ni8  1  0.00191817  0.66786428  0.33316154  1
  Ni  Ni9  1  0.33477617  1.00045737  1.00033288  1
  Ni  Ni10  1  0.50051191  0.16682728  0.16742130  1
  Ni  Ni11  1  0.33398134  0.99976631  0.33424190  1
  Ni  Ni12  1  0.33332319  0.33346352  0.00153327  1
  Ni  Ni13  1  0.50070936  0.50079777  0.16682599  1
  Fe  Fe14  1  0.33323360  0.33294814  0.33259113  1
  Ni  Ni15  1  0.33331674  0.66790399  1.00037748  1
  Ni  Ni16  1  0.50023400  0.83418729  0.16731368  1
  Ni  Ni17  1  0.33262445  0.66962454  0.33292962  1
  Ni  Ni18  1  0.66635722  1.00058933  0.00108603  1
  Ni  Ni19  1  0.83412804  0.16709945  0.16709849  1
  Ni  Ni20  1  0.66689619  0.00091054  0.33413114  1
  Ni  Ni21  1  0.66796918  0.33324420  1.00037400  1
  Ni  Ni22  1  0.83397194  0.50048468  0.16724643  1
  Ni  Ni23  1  0.66868745  0.33157863  0.33177904  1
  Ni  Ni24  1  0.66784079  0.66799962  0.00107289  1
  Ni  Ni25  1  0.83412035  0.83417441  0.16767963  1
  Ni  Ni26  1  0.66713868  0.66929602  0.33152683  1
  Ni  Ni27  1  0.16607853  0.16559078  0.49962957  1
  Ni  Ni28  1  0.00065587  0.00064399  0.66762021  1
  Ni  Ni29  1  0.16643129  0.16597373  0.83524886  1
  Ni  Ni30  1  0.16654563  0.50166522  0.49965497  1
  Ni  Ni31  1  1.00013554  0.33300858  0.66800198  1
  Ni  Ni32  1  0.16638295  0.50144570  0.83448707  1
  Ni  Ni33  1  0.16707117  0.83455291  0.50082689  1
  Ni  Ni34  1  0.00170642  0.66826903  0.66768174  1
  Ni  Ni35  1  0.16719437  0.83432458  0.83408534  1
  Ni  Ni36  1  0.50151441  0.16472955  0.49968800  1
  Ni  Ni37  1  0.33399552  0.99902421  0.66717493  1
  Ni  Ni38  1  0.50121560  0.16605135  0.83484256  1
  Cr  Cr39  1  0.50074206  0.50208913  0.49956549  1
  Cr  Cr40  1  0.33270074  0.33249749  0.66803907  1
  Ni  Ni41  1  0.50143818  0.50151460  0.83538978  1
  Ni  Ni42  1  0.50038945  0.83544660  0.50082759  1
  Ni  Ni43  1  0.33264516  0.66993580  0.66840688  1
  Ni  Ni44  1  0.50052951  0.83429600  0.83370482  1
  Ni  Ni45  1  0.83434864  0.16550701  0.50081123  1
  Ni  Ni46  1  0.66723065  1.00059420  0.66661679  1
  Ni  Ni47  1  0.83409916  0.16688826  0.83374708  1
  Cr  Cr48  1  0.83477756  0.50094306  0.50126014  1
  Ni  Ni49  1  0.66893583  0.33149281  0.66963866  1
  Ni  Ni50  1  0.83405394  0.50080585  0.83373265  1
  Ni  Ni51  1  0.83435032  0.83589715  0.50016420  1
  Ni  Ni52  1  0.66750342  0.66980884  0.66937002  1
  Ni  Ni53  1  0.83407032  0.83411685  0.83392909  1
" 