5513,Ni92Fe5Cr2_16,-238.525070886977, 177.417634733422,Ni92Fe5Cr2,"# generated using pymatgen
 data_Cr3Fe2Ni49
_symmetry_space_group_name_H-M   'P 1'
_cell_length_a   7.45692530
_cell_length_b   7.45692530
_cell_length_c   10.54568489
_cell_angle_alpha   90.00000000
_cell_angle_beta   90.00000000
_cell_angle_gamma   90.00000000
_symmetry_Int_Tables_number   1
_chemical_formula_structural   Cr3Fe2Ni49
_chemical_formula_sum   'Cr3 Fe2 Ni49'
_cell_volume   586.40055804
_cell_formula_units_Z   1
loop_
 _symmetry_equiv_pos_site_id
 _symmetry_equiv_pos_as_xyz
  1  'x, y, z'
loop_
 _atom_site_type_symbol
 _atom_site_label
 _atom_site_symmetry_multiplicity
 _atom_site_fract_x
 _atom_site_fract_y
 _atom_site_fract_z
 _atom_site_occupancy
  Ni  Ni0  1  1.00059946  1.00034337  0.00098401  1
  Ni  Ni1  1  0.16874820  0.16640886  0.16659617  1
  Ni  Ni2  1  1.00059963  0.99893612  0.33395240  1
  Fe  Fe3  1  1.00035460  0.33368887  1.00035490  1
  Ni  Ni4  1  0.16683970  0.49972588  0.16684124  1
  Cr  Cr5  1  1.00054198  0.33408613  0.33369895  1
  Ni  Ni6  1  0.99915049  0.66775761  0.00117419  1
  Ni  Ni7  1  0.16567942  0.83590038  0.16784164  1
  Ni  Ni8  1  0.99914761  0.66914598  0.33379306  1
  Ni  Ni9  1  0.33350602  0.00272242  0.00098403  1
  Ni  Ni10  1  0.50018678  0.16756931  0.16807315  1
  Ni  Ni11  1  0.33381907  0.00219149  0.33343613  1
  Ni  Ni12  1  0.33442735  0.33248072  0.00117413  1
  Ni  Ni13  1  0.50234326  0.49881549  0.16759383  1
  Ni  Ni14  1  0.33570768  0.33258596  0.33368423  1
  Cr  Cr15  1  0.33391533  0.66724924  1.00054066  1
  Ni  Ni16  1  0.50234484  0.83565241  0.16731777  1
  Cr  Cr17  1  0.33360309  0.66714738  0.33360201  1
  Ni  Ni18  1  0.66793085  0.00127030  0.00079445  1
  Ni  Ni19  1  0.83310081  0.16640856  0.16659641  1
  Ni  Ni20  1  0.66761795  0.00074084  0.33362535  1
  Ni  Ni21  1  0.66700777  0.33392974  0.00098409  1
  Ni  Ni22  1  0.83285165  0.50188403  0.16684376  1
  Ni  Ni23  1  0.66572894  0.33403762  0.33387357  1
  Ni  Ni24  1  0.66938683  0.66683632  0.00098395  1
  Ni  Ni25  1  0.83401246  0.83374345  0.16784205  1
  Ni  Ni26  1  0.66898438  0.66725726  0.33351517  1
  Ni  Ni27  1  0.16776456  0.16651623  0.50126233  1
  Ni  Ni28  1  0.00079102  0.00076349  0.66709958  1
  Ni  Ni29  1  0.16767263  0.16724027  0.83417779  1
  Ni  Ni30  1  0.16779651  0.50022354  0.50234067  1
  Ni  Ni31  1  0.00079107  0.33414671  0.66796118  1
  Ni  Ni32  1  0.16684233  0.49972852  0.83285295  1
  Ni  Ni33  1  0.16672208  0.83529665  0.50126190  1
  Ni  Ni34  1  0.00116908  0.66712573  0.66706887  1
  Ni  Ni35  1  0.16675715  0.83506700  0.83293170  1
  Fe  Fe36  1  0.50061927  0.16740208  0.50056064  1
  Ni  Ni37  1  0.33362595  1.00036196  0.66761754  1
  Ni  Ni38  1  0.50043094  0.16732489  0.83377831  1
  Ni  Ni39  1  0.50150981  0.50026046  0.50126155  1
  Ni  Ni40  1  0.33368655  0.33460831  0.66717943  1
  Ni  Ni41  1  0.50151018  0.49989288  0.83317972  1
  Ni  Ni42  1  0.50150957  0.83418343  0.50150784  1
  Ni  Ni43  1  0.33371002  0.66706580  0.66753697  1
  Ni  Ni44  1  0.50151155  0.83481908  0.83320935  1
  Ni  Ni45  1  0.83384218  0.16651603  0.50150890  1
  Ni  Ni46  1  0.66761926  0.00073935  0.66761751  1
  Ni  Ni47  1  0.83393224  0.16723995  0.83393095  1
  Ni  Ni48  1  0.83272940  0.50130295  0.50126268  1
  Ni  Ni49  1  0.66755860  0.33423074  0.66717971  1
  Ni  Ni50  1  0.83368334  0.50080813  0.83393000  1
  Ni  Ni51  1  0.83380420  0.83421744  0.50018457  1
  Ni  Ni52  1  0.66715716  0.66706588  0.66753717  1
  Ni  Ni53  1  0.83376802  0.83398762  0.83400967  1
" 