4433,Ni92Fe5Cr2_1,-238.575770610397, 179.132490651106,Ni92Fe5Cr2,"# generated using pymatgen
 data_Cr3Fe2Ni49
_symmetry_space_group_name_H-M   'P 1'
_cell_length_a   7.45648506
_cell_length_b   7.45648506
_cell_length_c   10.54506230
_cell_angle_alpha   90.00000000
_cell_angle_beta   90.00000000
_cell_angle_gamma   90.00000000
_symmetry_Int_Tables_number   1
_chemical_formula_structural   Cr3Fe2Ni49
_chemical_formula_sum   'Cr3 Fe2 Ni49'
_cell_volume   586.29670556
_cell_formula_units_Z   1
loop_
 _symmetry_equiv_pos_site_id
 _symmetry_equiv_pos_as_xyz
  1  'x, y, z'
loop_
 _atom_site_type_symbol
 _atom_site_label
 _atom_site_symmetry_multiplicity
 _atom_site_fract_x
 _atom_site_fract_y
 _atom_site_fract_z
 _atom_site_occupancy
  Ni  Ni0  1  0.00114259  0.00156924  0.00126990  1
  Ni  Ni1  1  0.16655083  0.16630516  0.16834546  1
  Ni  Ni2  1  0.99998336  0.00153252  0.33321703  1
  Ni  Ni3  1  0.99965506  0.33424909  1.00027061  1
  Ni  Ni4  1  0.16655726  0.50178164  0.16834481  1
  Ni  Ni5  1  0.00138774  0.33424896  0.33427113  1
  Ni  Ni6  1  0.00091083  0.66630724  0.00149969  1
  Ni  Ni7  1  0.16738017  0.83403777  0.16678300  1
  Ni  Ni8  1  0.99975368  0.66634362  0.33298834  1
  Ni  Ni9  1  0.33446336  0.99928330  1.00050181  1
  Ni  Ni10  1  0.50138716  0.16640260  0.16824223  1
  Ni  Ni11  1  0.33502333  0.00193478  0.33281171  1
  Cr  Cr12  1  0.33340819  0.33384048  0.00091132  1
  Ni  Ni13  1  0.50138136  0.50168362  0.16824100  1
  Ni  Ni14  1  0.33379211  0.33401773  0.33439587  1
  Ni  Ni15  1  0.33446330  0.66882219  1.00005542  1
  Ni  Ni16  1  0.50045785  0.83403788  0.16716945  1
  Ni  Ni17  1  0.33502307  0.66617141  0.33325801  1
  Ni  Ni18  1  0.66652039  1.00053546  0.00126938  1
  Ni  Ni19  1  0.83418895  0.16722924  0.16706565  1
  Ni  Ni20  1  0.66711769  1.00030096  0.33444682  1
  Fe  Fe21  1  0.66908472  0.33404029  1.00065484  1
  Ni  Ni22  1  0.83418833  0.50085147  0.16706518  1
  Ni  Ni23  1  0.66694576  0.33424894  0.33359646  1
  Ni  Ni24  1  0.66675285  0.66733801  0.00149976  1
  Ni  Ni25  1  0.83428700  0.83404361  0.16775350  1
  Ni  Ni26  1  0.66734888  0.66757501  0.33421686  1
  Ni  Ni27  1  0.16730507  0.16896563  0.50073875  1
  Ni  Ni28  1  0.00097264  0.00209126  0.66763734  1
  Ni  Ni29  1  0.16670888  0.16648198  0.83304233  1
  Ni  Ni30  1  0.16722722  0.49901858  0.50066548  1
  Ni  Ni31  1  0.00137892  0.33446318  0.66758240  1
  Ni  Ni32  1  0.16663673  0.50150719  0.83311136  1
  Cr  Cr33  1  0.16701600  0.83420744  0.50074452  1
  Ni  Ni34  1  0.99994025  0.66557028  0.66763784  1
  Ni  Ni35  1  0.16915055  0.83413605  0.83449679  1
  Ni  Ni36  1  0.50090845  0.16745441  0.50073844  1
  Ni  Ni37  1  0.33502297  0.00229927  0.66881289  1
  Ni  Ni38  1  0.50123113  0.16658220  0.83314822  1
  Ni  Ni39  1  0.50098508  0.50053129  0.50066640  1
  Ni  Ni40  1  0.33379187  0.33343462  0.66699932  1
  Ni  Ni41  1  0.50130332  0.50140679  0.83321716  1
  Ni  Ni42  1  0.50267023  0.83413923  0.50084151  1
  Fe  Fe43  1  0.33487750  0.66653822  0.66831703  1
  Ni  Ni44  1  0.49868852  0.83413537  0.83410985  1
  Ni  Ni45  1  0.83391159  0.16728312  0.50094521  1
  Ni  Ni46  1  0.66612984  0.00086024  0.66640869  1
  Ni  Ni47  1  0.83418659  0.16910062  0.83411645  1
  Ni  Ni48  1  0.83391255  0.50077987  0.50091441  1
  Ni  Ni49  1  0.66695528  0.33446263  0.66825699  1
  Ni  Ni50  1  0.83418671  0.49896399  0.83414792  1
  Ni  Ni51  1  0.83240139  0.83406147  0.50055939  1
  Ni  Ni52  1  0.66715836  0.66680211  0.66640916  1
  Cr  Cr53  1  0.83443362  0.83423782  0.83383602  1
" 