1249,Ni92Fe5Cr2_19,-238.505218904955, 178.066608678226,Ni92Fe5Cr2,"# generated using pymatgen
 data_Cr3Fe2Ni49
_symmetry_space_group_name_H-M   'P 1'
_cell_length_a   7.45598393
_cell_length_b   7.45598393
_cell_length_c   10.54435359
_cell_angle_alpha   90.00000000
_cell_angle_beta   90.00000000
_cell_angle_gamma   90.00000000
_symmetry_Int_Tables_number   1
_chemical_formula_structural   Cr3Fe2Ni49
_chemical_formula_sum   'Cr3 Fe2 Ni49'
_cell_volume   586.17850222
_cell_formula_units_Z   1
loop_
 _symmetry_equiv_pos_site_id
 _symmetry_equiv_pos_as_xyz
  1  'x, y, z'
loop_
 _atom_site_type_symbol
 _atom_site_label
 _atom_site_symmetry_multiplicity
 _atom_site_fract_x
 _atom_site_fract_y
 _atom_site_fract_z
 _atom_site_occupancy
  Ni  Ni0  1  0.00079274  1.00066567  1.00071144  1
  Ni  Ni1  1  0.16762211  0.16761845  0.16762049  1
  Ni  Ni2  1  0.99983377  0.00162565  0.33328112  1
  Ni  Ni3  1  0.00238717  0.33386401  1.00029812  1
  Ni  Ni4  1  0.16738159  0.50073830  0.16738624  1
  Ni  Ni5  1  1.00072351  0.33384357  0.33449399  1
  Ni  Ni6  1  0.00102802  0.66769608  1.00047725  1
  Ni  Ni7  1  0.16762204  0.83386906  0.16749266  1
  Ni  Ni8  1  1.00006814  0.66675674  0.33348300  1
  Ni  Ni9  1  0.33399757  1.00066564  1.00026109  1
  Ni  Ni10  1  0.49990715  0.16654822  0.16821744  1
  Ni  Ni11  1  0.33493626  0.00162474  0.33370051  1
  Ni  Ni12  1  0.33264402  0.33410459  1.00053266  1
  Ni  Ni13  1  0.49991205  0.50157325  0.16866771  1
  Ni  Ni14  1  0.33420722  0.33400466  0.33419019  1
  Ni  Ni15  1  0.33400266  0.66745574  1.00071143  1
  Ni  Ni16  1  0.50074199  0.83410455  0.16738615  1
  Ni  Ni17  1  0.33486257  0.66659687  0.33318110  1
  Ni  Ni18  1  0.66743572  0.99930715  1.00053259  1
  Ni  Ni19  1  0.83469685  0.16678846  0.16845181  1
  Ni  Ni20  1  0.66745583  0.00097005  0.33426006  1
  Cr  Cr21  1  0.66725307  0.33392487  1.00055587  1
  Ni  Ni22  1  0.83493229  0.50157337  0.16821770  1
  Ni  Ni23  1  0.66729495  0.33376946  0.33419247  1
  Ni  Ni24  1  0.66719515  0.66905029  1.00029819  1
  Ni  Ni25  1  0.83386184  0.83386402  0.16762058  1
  Ni  Ni26  1  0.66729455  0.66748629  0.33442433  1
  Ni  Ni27  1  0.16773640  0.16982381  0.50087871  1
  Ni  Ni28  1  0.99942154  0.00144771  0.66823393  1
  Ni  Ni29  1  0.16752290  0.16794523  0.83372568  1
  Ni  Ni30  1  0.16677385  0.49885034  0.50094959  1
  Ni  Ni31  1  0.00282802  0.33362934  0.66743318  1
  Ni  Ni32  1  0.16736135  0.50051128  0.83389000  1
  Cr  Cr33  1  0.16749448  0.83365576  0.50057127  1
  Ni  Ni34  1  1.00046141  0.66714999  0.66826475  1
  Ni  Ni35  1  0.16752224  0.83376943  0.83408546  1
  Ni  Ni36  1  0.50018463  0.16623677  0.49986960  1
  Fe  Fe37  1  0.33466542  0.00128577  0.66820475  1
  Ni  Ni38  1  0.49922281  0.16586489  0.83413753  1
  Fe  Fe39  1  0.50014467  0.50129285  0.49994165  1
  Ni  Ni40  1  0.33231741  0.33459119  0.66750410  1
  Ni  Ni41  1  0.49914974  0.50235566  0.83361882  1
  Ni  Ni42  1  0.50273128  0.83459147  0.50087867  1
  Ni  Ni43  1  0.33468417  0.66618485  0.66833435  1
  Ni  Ni44  1  0.50106901  0.83400480  0.83395976  1
  Ni  Ni45  1  0.83430415  0.16720169  0.49993928  1
  Ni  Ni46  1  0.66804295  0.99908153  0.66743323  1
  Ni  Ni47  1  0.83547991  0.16602561  0.83383605  1
  Ni  Ni48  1  0.83534372  0.50139609  0.49996999  1
  Cr  Cr49  1  0.66732248  0.33365611  0.66761053  1
  Ni  Ni50  1  0.83571525  0.50235730  0.83403771  1
  Ni  Ni51  1  0.83175809  0.83362933  0.50094956  1
  Ni  Ni52  1  0.66708070  0.66959242  0.66750398  1
  Ni  Ni53  1  0.83363502  0.83384344  0.83365612  1
" 