214,Ni92Fe5Cr2_12,-238.501853033062, 178.364810832302,Ni92Fe5Cr2,"# generated using pymatgen
 data_Cr3Fe2Ni49
_symmetry_space_group_name_H-M   'P 1'
_cell_length_a   7.45594947
_cell_length_b   7.45594947
_cell_length_c   10.54430486
_cell_angle_alpha   90.00000000
_cell_angle_beta   90.00000000
_cell_angle_gamma   90.00000000
_symmetry_Int_Tables_number   1
_chemical_formula_structural   Cr3Fe2Ni49
_chemical_formula_sum   'Cr3 Fe2 Ni49'
_cell_volume   586.17037594
_cell_formula_units_Z   1
loop_
 _symmetry_equiv_pos_site_id
 _symmetry_equiv_pos_as_xyz
  1  'x, y, z'
loop_
 _atom_site_type_symbol
 _atom_site_label
 _atom_site_symmetry_multiplicity
 _atom_site_fract_x
 _atom_site_fract_y
 _atom_site_fract_z
 _atom_site_occupancy
  Cr  Cr0  1  0.00157499  1.00012408  0.99997197  1
  Ni  Ni1  1  0.17071935  0.16788380  0.16836180  1
  Fe  Fe2  1  0.00162296  0.99986636  0.33527379  1
  Ni  Ni3  1  0.00156258  0.33663334  0.99992489  1
  Ni  Ni4  1  0.16782225  0.50127018  0.16720234  1
  Ni  Ni5  1  0.00156165  0.33506918  0.33487427  1
  Ni  Ni6  1  1.00051116  0.66564559  0.00093467  1
  Ni  Ni7  1  0.16786073  0.83307917  0.16817355  1
  Ni  Ni8  1  1.00051105  0.66697632  0.33362612  1
  Ni  Ni9  1  0.33572448  0.00107745  0.00086278  1
  Ni  Ni10  1  0.49902830  0.16783665  0.16701430  1
  Ni  Ni11  1  0.33357442  1.00026812  0.33289434  1
  Ni  Ni12  1  0.33397181  0.33376035  0.00117634  1
  Ni  Ni13  1  0.50061220  0.49999609  0.16766466  1
  Ni  Ni14  1  0.33275372  0.33416658  0.33300608  1
  Ni  Ni15  1  0.33389627  0.66739271  0.00086302  1
  Fe  Fe16  1  0.50043209  0.83390952  0.16745655  1
  Ni  Ni17  1  0.33371682  0.66779594  0.33436376  1
  Ni  Ni18  1  0.66495272  1.00002789  0.99981795  1
  Cr  Cr19  1  0.83261644  0.16815024  0.16827441  1
  Ni  Ni20  1  0.66709701  0.99921951  0.33394017  1
  Ni  Ni21  1  0.66669992  0.33480887  1.00012813  1
  Ni  Ni22  1  0.83380015  0.50285805  0.16720280  1
  Ni  Ni23  1  0.66792046  0.33521196  0.33405245  1
  Ni  Ni24  1  0.66782407  0.66739282  0.00110271  1
  Ni  Ni25  1  0.83375633  0.83149488  0.16817346  1
  Ni  Ni26  1  0.66800494  0.66779730  0.33412383  1
  Ni  Ni27  1  0.16577991  0.16729095  0.50037909  1
  Ni  Ni28  1  1.00074407  0.00098214  0.66659173  1
  Ni  Ni29  1  0.16844118  0.16800448  0.83348400  1
  Ni  Ni30  1  0.16746367  0.50104505  0.50049670  1
  Ni  Ni31  1  1.00074405  0.33364055  0.66743628  1
  Ni  Ni32  1  0.16739956  0.50086661  0.83453585  1
  Ni  Ni33  1  0.16730323  0.83389300  0.50081043  1
  Ni  Ni34  1  1.00073757  0.66760993  0.66767574  1
  Ni  Ni35  1  0.16819346  0.83336391  0.83324484  1
  Cr  Cr36  1  0.50094333  0.16782668  0.50095828  1
  Ni  Ni37  1  0.33306511  0.99992908  0.66848392  1
  Ni  Ni38  1  0.50097426  0.16720920  0.83466457  1
  Ni  Ni39  1  0.50079167  0.50238905  0.50070109  1
  Ni  Ni40  1  0.33299111  0.33462280  0.66805434  1
  Ni  Ni41  1  0.50079177  0.50043972  0.83386766  1
  Ni  Ni42  1  0.50079317  0.83240010  0.50026805  1
  Ni  Ni43  1  0.33405268  0.66768264  0.66700589  1
  Ni  Ni44  1  0.50079117  0.83458418  0.83457845  1
  Ni  Ni45  1  0.83547671  0.16729091  0.50075234  1
  Ni  Ni46  1  0.66842356  0.99992264  0.66848259  1
  Ni  Ni47  1  0.83281777  0.16800445  0.83311125  1
  Ni  Ni48  1  0.83397712  0.50086182  0.50031039  1
  Ni  Ni49  1  0.66849739  0.33462912  0.66805437  1
  Ni  Ni50  1  0.83404100  0.50068389  0.83472092  1
  Ni  Ni51  1  0.83413720  0.83407609  0.50062495  1
  Ni  Ni52  1  0.66744267  0.66768273  0.66700616  1
  Ni  Ni53  1  0.83324611  0.83354466  0.83342833  1
" 