520,Ni92Fe4Cr2_16,-239.295471765095, 180.507073658121,Ni92Fe4Cr2,"# generated using pymatgen
 data_CrFeNi25
_symmetry_space_group_name_H-M   'P 1'
_cell_length_a   7.45532013
_cell_length_b   7.45532013
_cell_length_c   10.54341484
_cell_angle_alpha   90.00000000
_cell_angle_beta   90.00000000
_cell_angle_gamma   90.00000000
_symmetry_Int_Tables_number   1
_chemical_formula_structural   CrFeNi25
_chemical_formula_sum   'Cr2 Fe2 Ni50'
_cell_volume   586.02195630
_cell_formula_units_Z   2
loop_
 _symmetry_equiv_pos_site_id
 _symmetry_equiv_pos_as_xyz
  1  'x, y, z'
loop_
 _atom_site_type_symbol
 _atom_site_label
 _atom_site_symmetry_multiplicity
 _atom_site_fract_x
 _atom_site_fract_y
 _atom_site_fract_z
 _atom_site_occupancy
  Ni  Ni0  1  0.00192442  0.00128462  0.00192120  1
  Ni  Ni1  1  0.16818440  0.16660138  0.16618569  1
  Ni  Ni2  1  0.00100696  0.99887349  0.33390215  1
  Ni  Ni3  1  0.00088813  0.33465682  1.00051702  1
  Ni  Ni4  1  0.16810591  0.50156544  0.16672259  1
  Cr  Cr5  1  0.00094392  0.33427245  0.33396087  1
  Ni  Ni6  1  0.00093145  0.66641984  0.00184842  1
  Ni  Ni7  1  0.16688628  0.83419440  0.16757457  1
  Ni  Ni8  1  1.00075685  0.66915488  0.33414333  1
  Ni  Ni9  1  0.33417105  0.00113594  1.00070219  1
  Ni  Ni10  1  0.50088510  0.16763724  0.16768522  1
  Ni  Ni11  1  0.33424519  1.00068308  0.33414338  1
  Ni  Ni12  1  0.33398931  0.33358462  0.00112428  1
  Ni  Ni13  1  0.50072237  0.50028571  0.16751772  1
  Ni  Ni14  1  0.33581602  0.33408824  0.33414329  1
  Fe  Fe15  1  0.33408096  0.66751307  1.00067963  1
  Ni  Ni16  1  0.50090377  0.83443595  0.16709601  1
  Ni  Ni17  1  0.33425335  0.66758831  0.33367883  1
  Ni  Ni18  1  0.66626543  0.00118080  0.00166449  1
  Ni  Ni19  1  0.83328930  0.16641685  0.16642874  1
  Ni  Ni20  1  0.66710733  1.00043710  0.33390223  1
  Ni  Ni21  1  0.66748292  0.33457843  0.00081315  1
  Ni  Ni22  1  0.83353251  0.50158420  0.16622398  1
  Ni  Ni23  1  0.66553984  0.33433828  0.33390216  1
  Ni  Ni24  1  0.66733485  0.66660062  0.00162904  1
  Ni  Ni25  1  0.83456860  0.83435763  0.16762935  1
  Ni  Ni26  1  0.66734933  0.66758410  0.33414334  1
  Ni  Ni27  1  0.16820488  0.16659974  0.50208054  1
  Ni  Ni28  1  0.00170578  0.00150751  0.66653534  1
  Fe  Fe29  1  0.16780896  0.16775759  0.83416603  1
  Ni  Ni30  1  0.16821258  0.50167186  0.50161618  1
  Ni  Ni31  1  1.00066782  0.33443528  0.66794121  1
  Ni  Ni32  1  0.16748259  0.50119156  0.83402129  1
  Ni  Ni33  1  0.16699226  0.83408816  0.50076420  1
  Ni  Ni34  1  0.00154190  0.66641834  0.66636655  1
  Ni  Ni35  1  0.16904838  0.83358514  0.83402215  1
  Ni  Ni36  1  0.50086565  0.16763736  0.50057992  1
  Ni  Ni37  1  0.33417049  1.00052850  0.66751417  1
  Ni  Ni38  1  0.50131573  0.16758801  0.83409425  1
  Ni  Ni39  1  0.50061555  0.50039226  0.50082113  1
  Ni  Ni40  1  0.33398890  0.33419472  0.66709247  1
  Ni  Ni41  1  0.50032049  0.50011431  0.83402119  1
  Ni  Ni42  1  0.50079811  0.83433006  0.50124248  1
  Ni  Ni43  1  0.33409239  0.66763731  0.66805124  1
  Ni  Ni44  1  0.49874830  0.83465562  0.83402208  1
  Ni  Ni45  1  0.83328888  0.16641617  0.50180160  1
  Ni  Ni46  1  0.66648448  0.00140302  0.66679124  1
  Ni  Ni47  1  0.83348592  0.16915469  0.83412999  1
  Ni  Ni48  1  0.83353132  0.50160479  0.50204261  1
  Ni  Ni49  1  0.66770366  0.33435751  0.66764428  1
  Ni  Ni50  1  0.83455535  0.49862757  0.83409461  1
  Ni  Ni51  1  0.83456916  0.83433828  0.50063614  1
  Ni  Ni52  1  0.66672451  0.66659898  0.66658583  1
  Cr  Cr53  1  0.83438238  0.83458410  0.83391036  1
" 