6007,Ni92Fe4Cr2_6,-239.383309372256, 181.429576855969,Ni92Fe4Cr2,"# generated using pymatgen
 data_CrFeNi25
_symmetry_space_group_name_H-M   'P 1'
_cell_length_a   7.45553883
_cell_length_b   7.45553883
_cell_length_c   10.54372412
_cell_angle_alpha   90.00000000
_cell_angle_beta   90.00000000
_cell_angle_gamma   90.00000000
_symmetry_Int_Tables_number   1
_chemical_formula_structural   CrFeNi25
_chemical_formula_sum   'Cr2 Fe2 Ni50'
_cell_volume   586.07352977
_cell_formula_units_Z   2
loop_
 _symmetry_equiv_pos_site_id
 _symmetry_equiv_pos_as_xyz
  1  'x, y, z'
loop_
 _atom_site_type_symbol
 _atom_site_label
 _atom_site_symmetry_multiplicity
 _atom_site_fract_x
 _atom_site_fract_y
 _atom_site_fract_z
 _atom_site_occupancy
  Ni  Ni0  1  1.00074251  1.00075397  0.00077308  1
  Ni  Ni1  1  0.16760113  0.16759162  0.16753194  1
  Ni  Ni2  1  1.00012491  0.00097592  0.33431955  1
  Ni  Ni3  1  0.00099308  0.33410676  1.00029905  1
  Ni  Ni4  1  0.16767888  0.50071653  0.16722153  1
  Ni  Ni5  1  0.00122165  0.33343303  0.33480223  1
  Ni  Ni6  1  0.00099339  0.66745481  0.00078186  1
  Ni  Ni7  1  0.16743129  0.83400364  0.16734100  1
  Ni  Ni8  1  0.00122061  0.66790490  0.33407845  1
  Ni  Ni9  1  0.33411656  0.00099236  1.00076599  1
  Ni  Ni10  1  0.50087412  0.16776248  0.16696053  1
  Fe  Fe11  1  0.33322684  0.99987492  0.33321787  1
  Ni  Ni12  1  0.33330253  0.33330535  0.00159054  1
  Ni  Ni13  1  0.50079392  0.50054925  0.16779014  1
  Ni  Ni14  1  0.33330305  0.33558416  0.33326056  1
  Ni  Ni15  1  0.33306276  0.66801910  0.00134344  1
  Ni  Ni16  1  0.50087558  0.83400106  0.16733838  1
  Ni  Ni17  1  0.33411638  0.66656217  0.33456959  1
  Ni  Ni18  1  0.66745462  0.00099261  1.00028360  1
  Ni  Ni19  1  0.83384100  0.16751400  0.16760015  1
  Ni  Ni20  1  0.66913925  1.00016156  0.33350772  1
  Ni  Ni21  1  0.66802044  0.33305426  0.00184116  1
  Ni  Ni22  1  0.83384274  0.50071845  0.16726814  1
  Ni  Ni23  1  0.66778968  0.33448294  0.33326065  1
  Ni  Ni24  1  0.66825950  0.66827066  0.00159517  1
  Ni  Ni25  1  0.83400836  0.83408299  0.16741077  1
  Ni  Ni26  1  0.66697692  0.66766826  0.33456916  1
  Ni  Ni27  1  0.16575014  0.16748264  0.50082474  1
  Ni  Ni28  1  1.00074348  1.00035488  0.66722086  1
  Ni  Ni29  1  0.16764356  0.16719172  0.83396179  1
  Ni  Ni30  1  0.16760997  0.50100426  0.50094430  1
  Fe  Fe31  1  1.00076675  0.33410990  0.66743968  1
  Ni  Ni32  1  0.16584463  0.50083088  0.83415144  1
  Ni  Ni33  1  0.16727079  0.83382856  0.50089066  1
  Ni  Ni34  1  0.00099326  0.66808521  0.66745495  1
  Ni  Ni35  1  0.16737879  0.83429306  0.83408018  1
  Cr  Cr36  1  0.50094379  0.16759374  0.50093091  1
  Ni  Ni37  1  0.33306046  1.00039252  0.66803587  1
  Ni  Ni38  1  0.50076217  0.16567797  0.83426950  1
  Ni  Ni39  1  0.50079319  0.50251757  0.50063399  1
  Ni  Ni40  1  0.33309935  0.33413237  0.66746192  1
  Cr  Cr41  1  0.50077903  0.50078774  0.83411348  1
  Ni  Ni42  1  0.50087350  0.83203757  0.50113089  1
  Ni  Ni43  1  0.33306037  0.66778829  0.66640549  1
  Ni  Ni44  1  0.50076176  0.83608217  0.83384409  1
  Ni  Ni45  1  0.83569043  0.16740453  0.50075619  1
  Ni  Ni46  1  0.66850864  1.00039211  0.66851830  1
  Ni  Ni47  1  0.83390793  0.16720707  0.83396350  1
  Ni  Ni48  1  0.83391018  0.50100860  0.50089638  1
  Ni  Ni49  1  0.66821560  0.33388556  0.66721486  1
  Ni  Ni50  1  0.83568979  0.50083290  0.83415346  1
  Ni  Ni51  1  0.83417213  0.83390509  0.50082377  1
  Ni  Ni52  1  0.66826238  0.66803832  0.66615513  1
  Ni  Ni53  1  0.83417495  0.83427571  0.83408009  1
" 