8581,Ni92Fe4Cr2_7,-239.383195801004, 180.636104734302,Ni92Fe4Cr2,"# generated using pymatgen
 data_CrFeNi25
_symmetry_space_group_name_H-M   'P 1'
_cell_length_a   7.45528553
_cell_length_b   7.45528553
_cell_length_c   10.54336591
_cell_angle_alpha   90.00000000
_cell_angle_beta   90.00000000
_cell_angle_gamma   90.00000000
_symmetry_Int_Tables_number   1
_chemical_formula_structural   CrFeNi25
_chemical_formula_sum   'Cr2 Fe2 Ni50'
_cell_volume   586.01379727
_cell_formula_units_Z   2
loop_
 _symmetry_equiv_pos_site_id
 _symmetry_equiv_pos_as_xyz
  1  'x, y, z'
loop_
 _atom_site_type_symbol
 _atom_site_label
 _atom_site_symmetry_multiplicity
 _atom_site_fract_x
 _atom_site_fract_y
 _atom_site_fract_z
 _atom_site_occupancy
  Ni  Ni0  1  0.00193899  0.99987356  1.00076614  1
  Ni  Ni1  1  0.16930191  0.16583066  0.16738422  1
  Fe  Fe2  1  0.00171568  0.99991205  0.33494517  1
  Ni  Ni3  1  0.00088764  0.33424604  0.99924133  1
  Cr  Cr4  1  0.16746782  0.50059217  0.16708034  1
  Ni  Ni5  1  1.00078491  0.33475779  0.33574429  1
  Ni  Ni6  1  0.99976129  0.66824289  1.00022112  1
  Ni  Ni7  1  0.16746592  0.83583053  0.16714049  1
  Ni  Ni8  1  0.99974417  0.66763147  0.33469193  1
  Ni  Ni9  1  0.33391452  0.00100226  0.00126883  1
  Ni  Ni10  1  0.49917878  0.16734567  0.16745293  1
  Ni  Ni11  1  0.33452339  0.00102027  0.33364437  1
  Ni  Ni12  1  0.33471959  0.33287529  1.00046478  1
  Ni  Ni13  1  0.50259607  0.50070234  0.16724711  1
  Ni  Ni14  1  0.33449466  0.33263398  0.33469292  1
  Ni  Ni15  1  0.33471967  0.66848953  1.00018610  1
  Ni  Ni16  1  0.50100844  0.83431830  0.16720844  1
  Ni  Ni17  1  0.33449465  0.66871179  0.33493223  1
  Ni  Ni18  1  0.66651581  0.99987452  1.00005471  1
  Cr  Cr19  1  0.83398761  0.16766312  0.16701989  1
  Ni  Ni20  1  0.66600368  0.99997995  0.33493324  1
  Ni  Ni21  1  0.66675762  0.33505475  1.00053628  1
  Ni  Ni22  1  0.83238072  0.50253542  0.16745344  1
  Ni  Ni23  1  0.66708919  0.33472311  0.33469457  1
  Ni  Ni24  1  0.66788717  0.66743817  0.00151401  1
  Ni  Ni25  1  0.83389119  0.83241085  0.16738254  1
  Ni  Ni26  1  0.66812962  0.66766299  0.33364457  1
  Ni  Ni27  1  0.16734891  0.16778714  0.50038064  1
  Ni  Ni28  1  0.00089724  1.00068653  0.66690786  1
  Ni  Ni29  1  0.16785843  0.16768196  0.83460323  1
  Ni  Ni30  1  0.16721148  0.50052121  0.50111664  1
  Ni  Ni31  1  0.00089072  0.33425140  0.66738048  1
  Ni  Ni32  1  0.16696931  0.50029851  0.83404208  1
  Ni  Ni33  1  0.16728795  0.83405751  0.50081260  1
  Ni  Ni34  1  0.00080542  0.66742749  0.66745376  1
  Ni  Ni35  1  0.16695850  0.83438655  0.83441574  1
  Ni  Ni36  1  0.50094718  0.16752646  0.50049760  1
  Ni  Ni37  1  0.33414409  1.00077248  0.66745381  1
  Ni  Ni38  1  0.50032967  0.16750773  0.83441576  1
  Ni  Ni39  1  0.50082299  0.50052238  0.50070359  1
  Ni  Ni40  1  0.33390405  0.33392027  0.66720811  1
  Ni  Ni41  1  0.50104643  0.50029852  0.83441577  1
  Ni  Ni42  1  0.50100825  0.83431760  0.50092890  1
  Ni  Ni43  1  0.33390356  0.66767377  0.66724694  1
  Ni  Ni44  1  0.50123092  0.83456014  0.83422916  1
  Ni  Ni45  1  0.83407023  0.16760470  0.50141486  1
  Ni  Ni46  1  0.66732588  1.00068650  0.66737975  1
  Fe  Fe47  1  0.83411565  0.16744091  0.83380255  1
  Ni  Ni48  1  0.83433208  0.50058221  0.50031093  1
  Ni  Ni49  1  0.66757178  0.33401202  0.66713514  1
  Ni  Ni50  1  0.83435097  0.50119822  0.83460328  1
  Ni  Ni51  1  0.83407058  0.83417893  0.50056845  1
  Ni  Ni52  1  0.66765758  0.66766744  0.66720814  1
  Ni  Ni53  1  0.83417686  0.83366942  0.83441569  1
" 