7979,Ni92Fe5Cr2_9,-238.616224137766, 177.768224358127,Ni92Fe5Cr2,"# generated using pymatgen
 data_Cr3Fe2Ni49
_symmetry_space_group_name_H-M   'P 1'
_cell_length_a   7.45861276
_cell_length_b   7.45861276
_cell_length_c   10.54807133
_cell_angle_alpha   90.00000000
_cell_angle_beta   90.00000000
_cell_angle_gamma   90.00000000
_symmetry_Int_Tables_number   1
_chemical_formula_structural   Cr3Fe2Ni49
_chemical_formula_sum   'Cr3 Fe2 Ni49'
_cell_volume   586.79874711
_cell_formula_units_Z   1
loop_
 _symmetry_equiv_pos_site_id
 _symmetry_equiv_pos_as_xyz
  1  'x, y, z'
loop_
 _atom_site_type_symbol
 _atom_site_label
 _atom_site_symmetry_multiplicity
 _atom_site_fract_x
 _atom_site_fract_y
 _atom_site_fract_z
 _atom_site_occupancy
  Ni  Ni0  1  0.00067009  0.00095185  1.00019667  1
  Ni  Ni1  1  0.16786673  0.16636825  0.16665662  1
  Ni  Ni2  1  0.00142085  0.99814335  0.33376640  1
  Ni  Ni3  1  0.00067082  0.33403137  0.00069290  1
  Ni  Ni4  1  0.16781187  0.50114146  0.16620421  1
  Cr  Cr5  1  0.00143841  0.33499377  0.33284039  1
  Ni  Ni6  1  0.00058333  0.66671105  0.00061848  1
  Ni  Ni7  1  0.16669080  0.83418569  0.16730854  1
  Ni  Ni8  1  1.00032114  0.66877575  0.33437707  1
  Ni  Ni9  1  0.33382212  0.00065126  0.00061808  1
  Ni  Ni10  1  0.50078230  0.16748936  0.16776218  1
  Ni  Ni11  1  0.33401516  0.00072243  0.33418267  1
  Ni  Ni12  1  0.33317719  0.33368745  1.00036104  1
  Ni  Ni13  1  0.50084634  0.50003046  0.16730855  1
  Ni  Ni14  1  0.33524056  0.33342507  0.33463489  1
  Ni  Ni15  1  0.33356608  0.66735849  1.00032147  1
  Ni  Ni16  1  0.50084651  0.83417618  0.16705591  1
  Ni  Ni17  1  0.33375667  0.66754882  0.33418686  1
  Ni  Ni18  1  0.66720310  1.00056422  0.00069290  1
  Ni  Ni19  1  0.83304744  0.16636843  0.16576922  1
  Ni  Ni20  1  0.66626409  0.99962376  0.33307703  1
  Ni  Ni21  1  0.66784660  0.33377577  1.00043757  1
  Ni  Ni22  1  0.83303655  0.50120716  0.16665594  1
  Ni  Ni23  1  0.66503667  0.33452568  0.33352537  1
  Ni  Ni24  1  0.66754705  0.66735673  1.00036117  1
  Ni  Ni25  1  0.83415859  0.83412157  0.16776200  1
  Ni  Ni26  1  0.66761848  0.66754967  0.33443925  1
  Ni  Ni27  1  0.17089622  0.16561559  0.50044103  1
  Fe  Fe28  1  0.00178988  0.99757168  0.66780488  1
  Ni  Ni29  1  0.16861813  0.16647751  0.83459923  1
  Ni  Ni30  1  0.16888505  0.50218905  0.50076885  1
  Cr  Cr31  1  0.00161953  0.33564486  0.66789432  1
  Ni  Ni32  1  0.16759340  0.50089925  0.83472090  1
  Ni  Ni33  1  0.16674972  0.83388412  0.50069723  1
  Ni  Ni34  1  1.00033982  0.66813385  0.66670178  1
  Ni  Ni35  1  0.16656459  0.83431198  0.83369132  1
  Ni  Ni36  1  0.49871892  0.16775035  0.50051551  1
  Ni  Ni37  1  0.33465348  0.00070306  0.66689665  1
  Ni  Ni38  1  0.50014010  0.16750853  0.83342149  1
  Ni  Ni39  1  0.50065446  0.49998035  0.50080937  1
  Ni  Ni40  1  0.33500177  0.33320683  0.66670185  1
  Ni  Ni41  1  0.50108180  0.49979535  0.83357874  1
  Ni  Ni42  1  0.50065698  0.83396544  0.50076994  1
  Ni  Ni43  1  0.33352193  0.66778312  0.66718771  1
  Ni  Ni44  1  0.50108226  0.83439107  0.83387086  1
  Cr  Cr45  1  0.83197063  0.16565725  0.50066960  1
  Ni  Ni46  1  0.66551562  0.99951683  0.66792758  1
  Fe  Fe47  1  0.83267500  0.16659998  0.83544388  1
  Ni  Ni48  1  0.83215627  0.50412025  0.50051557  1
  Ni  Ni49  1  0.66516735  0.33439510  0.66773319  1
  Ni  Ni50  1  0.83301881  0.50184576  0.83452583  1
  Ni  Ni51  1  0.83429216  0.83194674  0.50044217  1
  Ni  Ni52  1  0.66783467  0.66778334  0.66689671  1
  Ni  Ni53  1  0.83404986  0.83337164  0.83349436  1
" 