3249,Ni92Fe5Cr2_14,-238.559020650864, 178.702649101513,Ni92Fe5Cr2,"# generated using pymatgen
 data_Cr3Fe2Ni49
_symmetry_space_group_name_H-M   'P 1'
_cell_length_a   7.45678930
_cell_length_b   7.45678930
_cell_length_c   10.54549255
_cell_angle_alpha   90.00000000
_cell_angle_beta   90.00000000
_cell_angle_gamma   90.00000000
_symmetry_Int_Tables_number   1
_chemical_formula_structural   Cr3Fe2Ni49
_chemical_formula_sum   'Cr3 Fe2 Ni49'
_cell_volume   586.36847403
_cell_formula_units_Z   1
loop_
 _symmetry_equiv_pos_site_id
 _symmetry_equiv_pos_as_xyz
  1  'x, y, z'
loop_
 _atom_site_type_symbol
 _atom_site_label
 _atom_site_symmetry_multiplicity
 _atom_site_fract_x
 _atom_site_fract_y
 _atom_site_fract_z
 _atom_site_occupancy
  Ni  Ni0  1  1.00045984  0.00069279  1.00061151  1
  Fe  Fe1  1  0.16746690  0.16735133  0.16735085  1
  Ni  Ni2  1  1.00041029  0.00074259  0.33450737  1
  Ni  Ni3  1  1.00046089  0.33399242  1.00016203  1
  Ni  Ni4  1  0.16639420  0.50046987  0.16842005  1
  Ni  Ni5  1  0.00142258  0.33316121  0.33394539  1
  Ni  Ni6  1  0.99900230  0.66737812  1.00068645  1
  Ni  Ni7  1  0.16657513  0.83418327  0.16824181  1
  Ni  Ni8  1  0.00167791  0.66815837  0.33301246  1
  Ni  Ni9  1  0.33391072  0.00246457  1.00037927  1
  Ni  Ni10  1  0.50112690  0.16740702  0.16704995  1
  Ni  Ni11  1  0.33312987  0.99978829  0.33331906  1
  Ni  Ni12  1  0.33414477  0.33245613  1.00061219  1
  Ni  Ni13  1  0.50127398  0.49925240  0.16859875  1
  Ni  Ni14  1  0.33336362  0.33536156  0.33331796  1
  Cr  Cr15  1  0.33406791  0.66720107  1.00033407  1
  Ni  Ni16  1  0.50109624  0.83540432  0.16842045  1
  Ni  Ni17  1  0.33406377  0.66691373  0.33484641  1
  Ni  Ni18  1  0.66769232  0.00100416  1.00045369  1
  Ni  Ni19  1  0.83317401  0.16758783  0.16781874  1
  Ni  Ni20  1  0.66852258  1.00004290  0.33365382  1
  Ni  Ni21  1  0.66745741  0.33391526  1.00068631  1
  Ni  Ni22  1  0.83439582  0.50043806  0.16704999  1
  Ni  Ni23  1  0.66727772  0.33409474  0.33240984  1
  Ni  Ni24  1  0.66922895  0.66714419  1.00048215  1
  Ni  Ni25  1  0.83439268  0.83403775  0.16740919  1
  Ni  Ni26  1  0.66632125  0.66792603  0.33344665  1
  Ni  Ni27  1  0.16591529  0.16713129  0.50016531  1
  Ni  Ni28  1  1.00051217  1.00025582  0.66694468  1
  Ni  Ni29  1  0.16785966  0.16731094  0.83448961  1
  Ni  Ni30  1  0.16899000  0.50093615  0.50061402  1
  Fe  Fe31  1  0.00153201  0.33311329  0.66814175  1
  Ni  Ni32  1  0.16649316  0.49997516  0.83302936  1
  Ni  Ni33  1  0.16737618  0.83399615  0.50068639  1
  Ni  Ni34  1  0.00169868  0.66874956  0.66836570  1
  Ni  Ni35  1  0.16659538  0.83477676  0.83313545  1
  Cr  Cr36  1  0.50092211  0.16719066  0.50068612  1
  Ni  Ni37  1  0.33281327  1.00010489  0.66836510  1
  Ni  Ni38  1  0.50053459  0.16738653  0.83432714  1
  Ni  Ni39  1  0.49881146  0.50216464  0.50045408  1
  Ni  Ni40  1  0.33385153  0.33526037  0.66813380  1
  Ni  Ni41  1  0.50148953  0.49948794  0.83301097  1
  Ni  Ni42  1  0.50035051  0.83269219  0.50048219  1
  Ni  Ni43  1  0.33382766  0.66669796  0.66676353  1
  Ni  Ni44  1  0.50131195  0.83518947  0.83316055  1
  Ni  Ni45  1  0.83556705  0.16559158  0.50061444  1
  Ni  Ni46  1  0.66873855  1.00027912  0.66795604  1
  Ni  Ni47  1  0.83366981  0.16748842  0.83363100  1
  Cr  Cr48  1  0.83397397  0.50066869  0.50037014  1
  Ni  Ni49  1  0.66668728  0.33407398  0.66896828  1
  Ni  Ni50  1  0.83408068  0.50075314  0.83463251  1
  Ni  Ni51  1  0.83433693  0.83576728  0.50045394  1
  Ni  Ni52  1  0.66653723  0.66770993  0.66813477  1
  Ni  Ni53  1  0.83415673  0.83382207  0.83420067  1
" 