1083,Ni92Fe2Cr4_10,-237.435161122352, 173.867632553512,Ni92Fe2Cr4,"# generated using pymatgen
 data_Cr4FeNi49
_symmetry_space_group_name_H-M   'P 1'
_cell_length_a   7.46123667
_cell_length_b   7.46123667
_cell_length_c   10.55178209
_cell_angle_alpha   90.00000000
_cell_angle_beta   90.00000000
_cell_angle_gamma   90.00000000
_symmetry_Int_Tables_number   1
_chemical_formula_structural   Cr4FeNi49
_chemical_formula_sum   'Cr4 Fe1 Ni49'
_cell_volume   587.41826455
_cell_formula_units_Z   1
loop_
 _symmetry_equiv_pos_site_id
 _symmetry_equiv_pos_as_xyz
  1  'x, y, z'
loop_
 _atom_site_type_symbol
 _atom_site_label
 _atom_site_symmetry_multiplicity
 _atom_site_fract_x
 _atom_site_fract_y
 _atom_site_fract_z
 _atom_site_occupancy
  Ni  Ni0  1  0.00140358  0.00052416  0.00164795  1
  Ni  Ni1  1  0.16699049  0.16678084  0.16725370  1
  Ni  Ni2  1  0.99957332  0.00075008  0.33224753  1
  Ni  Ni3  1  0.00140949  0.33335958  0.99936024  1
  Ni  Ni4  1  0.16846460  0.50043090  0.16733161  1
  Ni  Ni5  1  0.00162591  0.33313363  0.33453538  1
  Ni  Ni6  1  0.00135735  0.66728341  0.00062082  1
  Ni  Ni7  1  0.16516643  0.83395682  0.16678826  1
  Ni  Ni8  1  1.00036837  0.66728372  0.33350920  1
  Ni  Ni9  1  0.33292058  0.00160092  0.99936056  1
  Ni  Ni10  1  0.50027368  0.16851695  0.16707574  1
  Ni  Ni11  1  0.33372293  0.00200778  0.33374007  1
  Ni  Ni12  1  0.33394473  0.33331535  0.00085373  1
  Ni  Ni13  1  0.49878980  0.49868834  0.16715434  1
  Ni  Ni14  1  0.33372356  0.33392909  0.33350910  1
  Fe  Fe15  1  0.33286431  0.66619179  0.99953288  1
  Cr  Cr16  1  0.50058888  0.83385961  0.16722168  1
  Ni  Ni17  1  0.33372199  0.66523045  0.33304611  1
  Ni  Ni18  1  0.66684372  0.00154776  0.00061971  1
  Ni  Ni19  1  0.83390383  0.16521375  0.16686529  1
  Ni  Ni20  1  0.66787345  0.00075266  0.33430414  1
  Ni  Ni21  1  0.66581227  0.33335790  0.99959093  1
  Cr  Cr22  1  0.83351083  0.50024379  0.16687551  1
  Ni  Ni23  1  0.66581744  0.33313212  0.33407161  1
  Ni  Ni24  1  0.66689073  0.66626087  0.99958872  1
  Ni  Ni25  1  0.83564392  0.83543170  0.16744261  1
  Ni  Ni26  1  0.66707582  0.66728199  0.33556598  1
  Ni  Ni27  1  0.16700256  0.16870537  0.50033453  1
  Ni  Ni28  1  0.00059703  0.00177734  0.66727256  1
  Ni  Ni29  1  0.16717161  0.16696214  0.83357934  1
  Ni  Ni30  1  0.16683780  0.49880168  0.50015685  1
  Ni  Ni31  1  0.00060339  0.33393627  0.66727282  1
  Ni  Ni32  1  0.16691205  0.50043027  0.83367914  1
  Cr  Cr33  1  0.16724150  0.83389629  0.50056333  1
  Ni  Ni34  1  1.00036778  0.66545696  0.66703715  1
  Ni  Ni35  1  0.16882635  0.83377386  0.83404693  1
  Ni  Ni36  1  0.50062480  0.16696336  0.50015675  1
  Ni  Ni37  1  0.33452822  0.00098898  0.66806832  1
  Ni  Ni38  1  0.50027380  0.16696250  0.83393479  1
  Ni  Ni39  1  0.50078981  0.50053805  0.49997867  1
  Ni  Ni40  1  0.33350153  0.33370665  0.66680450  1
  Ni  Ni41  1  0.50053390  0.50043030  0.83403497  1
  Ni  Ni42  1  0.50235710  0.83366691  0.50070192  1
  Ni  Ni43  1  0.33452699  0.66647346  0.66852998  1
  Ni  Ni44  1  0.49861915  0.83377398  0.83331218  1
  Ni  Ni45  1  0.83354089  0.16713908  0.50033460  1
  Ni  Ni46  1  0.66604369  0.00075217  0.66624275  1
  Ni  Ni47  1  0.83372281  0.16888045  0.83396861  1
  Ni  Ni48  1  0.83354073  0.50052712  0.50070127  1
  Ni  Ni49  1  0.66706324  0.33393642  0.66750563  1
  Ni  Ni50  1  0.83372118  0.49877928  0.83356880  1
  Ni  Ni51  1  0.83180351  0.83350197  0.49978876  1
  Ni  Ni52  1  0.66627321  0.66648092  0.66600992  1
  Cr  Cr53  1  0.83372140  0.83372031  0.83372957  1
" 