2740,Ni92Fe2Cr4_8,-237.492389718804, 172.775707338662,Ni92Fe2Cr4,"# generated using pymatgen
 data_Cr4FeNi49
_symmetry_space_group_name_H-M   'P 1'
_cell_length_a   7.46420080
_cell_length_b   7.46420080
_cell_length_c   10.55597401
_cell_angle_alpha   90.00000000
_cell_angle_beta   90.00000000
_cell_angle_gamma   90.00000000
_symmetry_Int_Tables_number   1
_chemical_formula_structural   Cr4FeNi49
_chemical_formula_sum   'Cr4 Fe1 Ni49'
_cell_volume   588.11863546
_cell_formula_units_Z   1
loop_
 _symmetry_equiv_pos_site_id
 _symmetry_equiv_pos_as_xyz
  1  'x, y, z'
loop_
 _atom_site_type_symbol
 _atom_site_label
 _atom_site_symmetry_multiplicity
 _atom_site_fract_x
 _atom_site_fract_y
 _atom_site_fract_z
 _atom_site_occupancy
  Ni  Ni0  1  0.00188524  1.00013773  0.00026793  1
  Ni  Ni1  1  0.16670399  0.16695068  0.16666373  1
  Ni  Ni2  1  0.00208773  0.00206507  0.33350490  1
  Ni  Ni3  1  0.00051996  0.33420977  0.00112296  1
  Ni  Ni4  1  0.16689482  0.50029364  0.16710695  1
  Ni  Ni5  1  0.99961385  0.33315035  0.33375684  1
  Ni  Ni6  1  0.00033730  0.66622341  0.99910171  1
  Ni  Ni7  1  0.16839171  0.83332760  0.16729812  1
  Ni  Ni8  1  0.00351729  0.66535301  0.33375605  1
  Ni  Ni9  1  0.33355180  1.00013105  0.00027008  1
  Ni  Ni10  1  0.50059600  0.16694065  0.16691507  1
  Ni  Ni11  1  0.33335588  0.99985038  0.33350321  1
  Ni  Ni12  1  0.33380632  0.33310153  0.99976531  1
  Ni  Ni13  1  0.49928304  0.49918241  0.16599742  1
  Ni  Ni14  1  0.33361215  0.33314567  0.33375690  1
  Ni  Ni15  1  0.33399625  0.66733877  0.00045978  1
  Ni  Ni16  1  0.49779885  0.83445086  0.16618769  1
  Ni  Ni17  1  0.33191907  0.66757719  0.33375713  1
  Ni  Ni18  1  0.66513166  0.99994970  0.99996131  1
  Ni  Ni19  1  0.83327186  0.16843778  0.16750108  1
  Ni  Ni20  1  0.66512417  0.00375017  0.33400294  1
  Ni  Ni21  1  0.66624636  0.33465239  0.00156725  1
  Ni  Ni22  1  0.83439641  0.49749408  0.16599345  1
  Ni  Ni23  1  0.66734709  0.33171080  0.33350321  1
  Ni  Ni24  1  0.66623929  0.66596939  0.99896093  1
  Cr  Cr25  1  0.83439803  0.83462584  0.16578622  1
  Cr  Cr26  1  0.66510262  0.66487588  0.33330735  1
  Ni  Ni27  1  0.16670155  0.16696473  0.50036132  1
  Ni  Ni28  1  0.00254483  1.00013787  0.66679876  1
  Ni  Ni29  1  0.16856916  0.16677030  0.83354652  1
  Ni  Ni30  1  0.16689476  0.50029350  0.49995477  1
  Ni  Ni31  1  0.00027539  0.33396526  0.66569338  1
  Ni  Ni32  1  0.16689450  0.50044467  0.83351053  1
  Ni  Ni33  1  0.16838719  0.83331417  0.49972786  1
  Ni  Ni34  1  1.00009449  0.66646700  0.66771370  1
  Ni  Ni35  1  0.16651174  0.83335751  0.83354670  1
  Ni  Ni36  1  0.50048285  0.16705349  0.50003050  1
  Ni  Ni37  1  0.33289833  1.00013075  0.66679829  1
  Ni  Ni38  1  0.49837357  0.16685963  0.83362914  1
  Ni  Ni39  1  0.49927087  0.49918597  0.50102535  1
  Ni  Ni40  1  0.33404814  0.33286036  0.66704964  1
  Ni  Ni41  1  0.50013542  0.50043771  0.83354686  1
  Ni  Ni42  1  0.49769050  0.83433757  0.50075704  1
  Ni  Ni43  1  0.33423733  0.66757999  0.66635566  1
  Ni  Ni44  1  0.50042656  0.83327597  0.83362780  1
  Ni  Ni45  1  0.83338612  0.16855111  0.49944300  1
  Fe  Fe46  1  0.66499690  1.00014555  0.66680593  1
  Cr  Cr47  1  0.83369976  0.16660849  0.83370155  1
  Ni  Ni48  1  0.83440812  0.49749970  0.50103004  1
  Ni  Ni49  1  0.66624696  0.33531219  0.66549998  1
  Ni  Ni50  1  0.83354227  0.50249553  0.83354629  1
  Cr  Cr51  1  0.83458028  0.83443975  0.50108455  1
  Ni  Ni52  1  0.66623938  0.66531679  0.66810790  1
  Ni  Ni53  1  0.83363191  0.83159631  0.83362905  1
" 