7368,Ni92Fe4Cr2_13,-239.294370551113, 180.634331462138,Ni92Fe4Cr2,"# generated using pymatgen
 data_CrFeNi25
_symmetry_space_group_name_H-M   'P 1'
_cell_length_a   7.45625409
_cell_length_b   7.45625409
_cell_length_c   10.54473566
_cell_angle_alpha   90.00000000
_cell_angle_beta   90.00000000
_cell_angle_gamma   90.00000000
_symmetry_Int_Tables_number   1
_chemical_formula_structural   CrFeNi25
_chemical_formula_sum   'Cr2 Fe2 Ni50'
_cell_volume   586.24222507
_cell_formula_units_Z   2
loop_
 _symmetry_equiv_pos_site_id
 _symmetry_equiv_pos_as_xyz
  1  'x, y, z'
loop_
 _atom_site_type_symbol
 _atom_site_label
 _atom_site_symmetry_multiplicity
 _atom_site_fract_x
 _atom_site_fract_y
 _atom_site_fract_z
 _atom_site_occupancy
  Ni  Ni0  1  1.00049396  0.99954804  0.00105393  1
  Ni  Ni1  1  0.16791247  0.16581153  0.16841608  1
  Ni  Ni2  1  1.00027767  0.00143793  0.33406855  1
  Cr  Cr3  1  0.00142875  0.33393349  0.99996929  1
  Ni  Ni4  1  0.16773559  0.50246366  0.16816236  1
  Ni  Ni5  1  0.00150183  0.33398784  0.33453891  1
  Ni  Ni6  1  1.00049949  0.66870755  0.00104846  1
  Ni  Ni7  1  0.16788680  0.83390172  0.16743363  1
  Ni  Ni8  1  1.00029941  0.66676755  0.33383269  1
  Ni  Ni9  1  0.33445608  0.00080808  0.00094231  1
  Ni  Ni10  1  0.50117747  0.16685377  0.16696678  1
  Ni  Ni11  1  0.33376859  1.00012652  0.33326953  1
  Ni  Ni12  1  0.33565159  0.33407208  0.00089740  1
  Ni  Ni13  1  0.50118641  0.50124579  0.16740682  1
  Ni  Ni14  1  0.33209429  0.33509308  0.33267886  1
  Ni  Ni15  1  0.33462464  0.66729120  0.00094487  1
  Ni  Ni16  1  0.49986001  0.83409920  0.16758429  1
  Ni  Ni17  1  0.33480546  0.66698515  0.33432380  1
  Ni  Ni18  1  0.66716390  1.00051145  1.00065538  1
  Ni  Ni19  1  0.83310010  0.16712400  0.16846070  1
  Ni  Ni20  1  0.66816466  0.99881138  0.33323456  1
  Ni  Ni21  1  0.66589469  0.33407569  0.00128577  1
  Ni  Ni22  1  0.83329763  0.50112005  0.16820068  1
  Fe  Fe23  1  0.66818590  0.33500239  0.33325976  1
  Ni  Ni24  1  0.66699009  0.66759513  1.00063279  1
  Fe  Fe25  1  0.83404441  0.83383500  0.16739426  1
  Ni  Ni26  1  0.66704590  0.66820903  0.33431938  1
  Ni  Ni27  1  0.16562838  0.16711844  0.50048720  1
  Ni  Ni28  1  1.00034692  0.00095063  0.66713127  1
  Ni  Ni29  1  0.16828395  0.16591127  0.83315145  1
  Ni  Ni30  1  0.16702799  0.50117840  0.50049730  1
  Ni  Ni31  1  0.00091894  0.33397627  0.66704110  1
  Ni  Ni32  1  0.16809598  0.50236191  0.83340250  1
  Ni  Ni33  1  0.16713451  0.83388355  0.50052972  1
  Ni  Ni34  1  1.00034715  0.66724461  0.66737091  1
  Ni  Ni35  1  0.16722979  0.83390476  0.83420701  1
  Cr  Cr36  1  0.50071047  0.16712721  0.50064776  1
  Ni  Ni37  1  0.33339465  0.99985761  0.66800191  1
  Ni  Ni38  1  0.50109043  0.16735537  0.83476861  1
  Ni  Ni39  1  0.50085660  0.50254094  0.50049308  1
  Ni  Ni40  1  0.33292544  0.33512470  0.66856272  1
  Ni  Ni41  1  0.50108940  0.50074428  0.83433149  1
  Ni  Ni42  1  0.50065416  0.83254898  0.50083294  1
  Ni  Ni43  1  0.33454352  0.66717717  0.66688790  1
  Ni  Ni44  1  0.50053498  0.83407985  0.83373485  1
  Ni  Ni45  1  0.83571529  0.16733762  0.50082853  1
  Ni  Ni46  1  0.66841018  0.99935756  0.66828509  1
  Ni  Ni47  1  0.83282641  0.16651747  0.83285803  1
  Ni  Ni48  1  0.83430767  0.50093613  0.50080910  1
  Ni  Ni49  1  0.66835033  0.33510533  0.66784897  1
  Ni  Ni50  1  0.83301956  0.50175444  0.83311238  1
  Ni  Ni51  1  0.83439720  0.83391960  0.50014713  1
  Ni  Ni52  1  0.66728464  0.66774367  0.66723214  1
  Ni  Ni53  1  0.83441231  0.83390854  0.83490170  1
" 