5950,Ni92Cr8_7,-202.870444961726, 188.589621525494,Ni92Cr8,"# generated using pymatgen
 data_Cr49Ni5
_symmetry_space_group_name_H-M   'P 1'
_cell_length_a   7.59414315
_cell_length_b   7.59414315
_cell_length_c   10.73974023
_cell_angle_alpha   90.00000000
_cell_angle_beta   90.00000000
_cell_angle_gamma   90.00000000
_symmetry_Int_Tables_number   1
_chemical_formula_structural   Cr49Ni5
_chemical_formula_sum   'Cr49 Ni5'
_cell_volume   619.37166783
_cell_formula_units_Z   1
loop_
 _symmetry_equiv_pos_site_id
 _symmetry_equiv_pos_as_xyz
  1  'x, y, z'
loop_
 _atom_site_type_symbol
 _atom_site_label
 _atom_site_symmetry_multiplicity
 _atom_site_fract_x
 _atom_site_fract_y
 _atom_site_fract_z
 _atom_site_occupancy
  Cr  Cr0  1  0.98974330  0.99158536  -0.00713867  1
  Cr  Cr1  1  0.15781136  0.15722167  0.15967919  1
  Cr  Cr2  1  0.99139296  -0.00824927  0.32279319  1
  Cr  Cr3  1  0.99147583  0.32398539  -0.00769617  1
  Cr  Cr4  1  0.15887506  0.49266235  0.15738283  1
  Cr  Cr5  1  0.99147521  0.32435421  0.32429495  1
  Cr  Cr6  1  -0.00745881  0.65932447  -0.00769576  1
  Cr  Cr7  1  0.15836877  0.82501306  0.15794199  1
  Cr  Cr8  1  0.99088843  0.65879122  0.32452702  1
  Cr  Cr9  1  0.32496600  0.99051539  0.99097377  1
  Cr  Cr10  1  0.49235667  0.15780860  0.15909098  1
  Ni  Ni11  1  0.32585731  0.99088424  0.32630131  1
  Cr  Cr12  1  0.32496065  0.32679064  0.99092267  1
  Cr  Cr13  1  0.49128996  0.49207481  0.15679374  1
  Cr  Cr14  1  0.32461241  0.32385008  0.32531927  1
  Ni  Ni15  1  0.32496586  0.65800766  0.99133685  1
  Cr  Cr16  1  0.49120784  0.82501338  0.15834769  1
  Cr  Cr17  1  0.32575917  0.65985154  0.32605999  1
  Cr  Cr18  1  0.66018650  0.99158095  -0.00713823  1
  Ni  Ni19  1  0.82506417  0.15656683  0.15805002  1
  Cr  Cr20  1  0.65774423  0.99060586  0.32394155  1
  Cr  Cr21  1  0.65845992  0.32398476  -0.00769559  1
  Cr  Cr22  1  0.82473068  0.49151390  0.15888913  1
  Cr  Cr23  1  0.65880934  0.32435257  0.32393734  1
  Cr  Cr24  1  0.65738841  0.65932949  -0.00769617  1
  Ni  Ni25  1  0.82511101  0.82694266  0.15814992  1
  Cr  Cr26  1  0.65824842  0.65993701  0.32567597  1
  Cr  Cr27  1  0.15925677  0.15721984  0.49095914  1
  Cr  Cr28  1  0.99151267  -0.00824949  0.65924258  1
  Cr  Cr29  1  0.15829941  0.15782878  0.82425531  1
  Cr  Cr30  1  0.15752741  0.49168336  0.49151911  1
  Cr  Cr31  1  -0.00789518  0.32496451  0.65829691  1
  Cr  Cr32  1  0.15885581  0.49266286  0.82599476  1
  Cr  Cr33  1  0.16032511  0.82599329  0.49095971  1
  Cr  Cr34  1  0.99151810  0.65818096  0.65806496  1
  Cr  Cr35  1  0.15886017  0.82440481  0.82599442  1
  Cr  Cr36  1  0.49072373  0.15615476  0.49095921  1
  Cr  Cr37  1  0.32575903  0.99119142  0.65710022  1
  Cr  Cr38  1  0.49186584  0.15841650  0.82484431  1
  Cr  Cr39  1  0.49245294  0.49274643  0.49151889  1
  Cr  Cr40  1  0.32461234  0.32496949  0.65865377  1
  Cr  Cr41  1  0.49130930  0.49207497  0.82658425  1
  Ni  Ni42  1  0.49049502  0.82575940  0.49098835  1
  Cr  Cr43  1  0.32575808  0.65873486  0.65791164  1
  Cr  Cr44  1  0.49071737  0.82440492  0.82558798  1
  Cr  Cr45  1  0.82491475  0.15895441  0.49229076  1
  Cr  Cr46  1  0.65762427  0.99060397  0.65809380  1
  Cr  Cr47  1  0.82473079  0.15842128  0.82442942  1
  Cr  Cr48  1  0.82491533  0.49167748  0.49234124  1
  Cr  Cr49  1  0.65817899  0.32496409  0.65865383  1
  Cr  Cr50  1  0.82473067  0.49151341  0.82366538  1
  Cr  Cr51  1  0.82384992  0.82426450  0.49229051  1
  Cr  Cr52  1  0.65762015  0.65932734  0.65691713  1
  Cr  Cr53  1  0.82531870  0.82496118  0.82466182  1
" 