523,Ni92Fe7Cr0_11,-239.666019820612, 183.516273408218,Ni92Fe7Cr0,"# generated using pymatgen
 data_Cr2Fe3Ni49
_symmetry_space_group_name_H-M   'P 1'
_cell_length_a   7.45229522
_cell_length_b   7.45229522
_cell_length_c   10.53913697
_cell_angle_alpha   90.00000000
_cell_angle_beta   90.00000000
_cell_angle_gamma   90.00000000
_symmetry_Int_Tables_number   1
_chemical_formula_structural   Cr2Fe3Ni49
_chemical_formula_sum   'Cr2 Fe3 Ni49'
_cell_volume   585.30893108
_cell_formula_units_Z   1
loop_
 _symmetry_equiv_pos_site_id
 _symmetry_equiv_pos_as_xyz
  1  'x, y, z'
loop_
 _atom_site_type_symbol
 _atom_site_label
 _atom_site_symmetry_multiplicity
 _atom_site_fract_x
 _atom_site_fract_y
 _atom_site_fract_z
 _atom_site_occupancy
  Ni  Ni0  1  0.99932664  0.00146321  0.00103018  1
  Ni  Ni1  1  0.16664347  0.16821660  0.16821092  1
  Ni  Ni2  1  1.00095799  0.00158163  0.33435283  1
  Ni  Ni3  1  1.00083376  0.33450532  1.00096351  1
  Ni  Ni4  1  0.16768350  0.50123002  0.16717094  1
  Ni  Ni5  1  0.00158917  0.33432317  0.33429673  1
  Ni  Ni6  1  1.00071675  0.66700079  1.00084354  1
  Ni  Ni7  1  0.16688582  0.83352273  0.16848629  1
  Ni  Ni8  1  1.00058465  0.66706465  0.33472663  1
  Cr  Cr9  1  0.33432165  0.00130547  0.00172519  1
  Ni  Ni10  1  0.50190507  0.16814395  0.16814105  1
  Ni  Ni11  1  0.33480865  0.00133916  0.33447860  1
  Ni  Ni12  1  0.33434787  0.33608147  1.00047067  1
  Ni  Ni13  1  0.50086499  0.50130266  0.16710116  1
  Ni  Ni14  1  0.33374828  0.33413640  0.33457040  1
  Ni  Ni15  1  0.33477924  0.66573964  0.00101955  1
  Ni  Ni16  1  0.50173499  0.83352318  0.16845361  1
  Ni  Ni17  1  0.33499530  0.66749373  0.33429670  1
  Ni  Ni18  1  0.66904928  0.00103194  1.00060018  1
  Ni  Ni19  1  0.83442106  0.16734637  0.16734430  1
  Ni  Ni20  1  0.66720271  1.00033436  0.33453969  1
  Ni  Ni21  1  0.66778778  0.33469194  0.00123717  1
  Ni  Ni22  1  0.83442081  0.50106015  0.16758377  1
  Fe  Fe23  1  0.66761332  0.33438645  0.33443507  1
  Ni  Ni24  1  0.66747344  0.66724543  1.00096931  1
  Ni  Ni25  1  0.83434834  0.83456283  0.16695327  1
  Ni  Ni26  1  0.66738945  0.66812475  0.33435769  1
  Ni  Ni27  1  0.16734312  0.16731533  0.50113826  1
  Ni  Ni28  1  0.00167077  0.00186198  0.66758581  1
  Ni  Ni29  1  0.16632727  0.16792520  0.83362047  1
  Ni  Ni30  1  0.16734299  0.50157060  0.50137765  1
  Ni  Ni31  1  1.00059877  0.33414126  0.66770936  1
  Ni  Ni32  1  0.16736639  0.50176069  0.83442034  1
  Ni  Ni33  1  0.16766005  0.83408342  0.50117209  1
  Ni  Ni34  1  0.00306169  0.66696629  0.66739878  1
  Ni  Ni35  1  0.16745466  0.83328404  0.83331191  1
  Ni  Ni36  1  0.50144506  0.16724290  0.50144751  1
  Ni  Ni37  1  0.33441053  1.00073207  0.66728421  1
  Ni  Ni38  1  0.50256153  0.16792704  0.83338116  1
  Ni  Ni39  1  0.50040530  0.50060286  0.50040744  1
  Fe  Fe40  1  0.33406875  0.33396227  0.66766941  1
  Ni  Ni41  1  0.50048282  0.50071887  0.83545996  1
  Ni  Ni42  1  0.50016088  0.83512295  0.50016500  1
  Ni  Ni43  1  0.33283466  0.66828322  0.66765318  1
  Ni  Ni44  1  0.50039194  0.83432386  0.83435171  1
  Ni  Ni45  1  0.83418115  0.16755997  0.50127407  1
  Ni  Ni46  1  0.66688831  0.00319403  0.66782903  1
  Ni  Ni47  1  0.83408040  0.16801490  0.83435103  1
  Ni  Ni48  1  0.83522093  0.50028590  0.50023430  1
  Ni  Ni49  1  0.66820484  0.33256496  0.66724888  1
  Ni  Ni50  1  0.83512016  0.49959039  0.83515139  1
  Ni  Ni51  1  0.83514893  0.83512351  0.50065760  1
  Cr  Cr52  1  0.66738678  0.66727629  0.66753445  1
  Fe  Fe53  1  0.83519592  0.83525578  0.83525461  1
" 