6241,Ni92Fe2Cr4_2,-237.477013212638, 172.898860536576,Ni92Fe2Cr4,"# generated using pymatgen
 data_Cr4FeNi49
_symmetry_space_group_name_H-M   'P 1'
_cell_length_a   7.46230184
_cell_length_b   7.46230184
_cell_length_c   10.55328846
_cell_angle_alpha   90.00000000
_cell_angle_beta   90.00000000
_cell_angle_gamma   90.00000000
_symmetry_Int_Tables_number   1
_chemical_formula_structural   Cr4FeNi49
_chemical_formula_sum   'Cr4 Fe1 Ni49'
_cell_volume   587.66987998
_cell_formula_units_Z   1
loop_
 _symmetry_equiv_pos_site_id
 _symmetry_equiv_pos_as_xyz
  1  'x, y, z'
loop_
 _atom_site_type_symbol
 _atom_site_label
 _atom_site_symmetry_multiplicity
 _atom_site_fract_x
 _atom_site_fract_y
 _atom_site_fract_z
 _atom_site_occupancy
  Ni  Ni0  1  0.00313061  0.00127797  0.00158776  1
  Ni  Ni1  1  0.16726795  0.16711915  0.16712472  1
  Ni  Ni2  1  0.00189554  0.00071505  0.33337607  1
  Ni  Ni3  1  0.00098111  0.33398826  1.00016215  1
  Ni  Ni4  1  0.16696330  0.50002033  0.16679157  1
  Ni  Ni5  1  0.00063912  0.33369588  0.33364706  1
  Ni  Ni6  1  0.00178768  0.66571926  0.00104480  1
  Ni  Ni7  1  0.16681020  0.83379668  0.16650643  1
  Ni  Ni8  1  0.00095758  0.66653882  0.33392611  1
  Ni  Ni9  1  0.33194625  0.00048365  0.00048095  1
  Ni  Ni10  1  0.49820381  0.16922114  0.16708763  1
  Ni  Ni11  1  0.33199090  1.00024318  0.33334342  1
  Ni  Ni12  1  0.33312093  0.33386687  0.00043538  1
  Ni  Ni13  1  0.50035599  0.49981636  0.16677100  1
  Ni  Ni14  1  0.33303873  0.33400917  0.33363671  1
  Ni  Ni15  1  0.33318933  0.66661622  0.99956903  1
  Ni  Ni16  1  0.49833839  0.83185949  0.16656608  1
  Ni  Ni17  1  0.33322951  0.66669345  0.33396395  1
  Cr  Cr18  1  0.66558195  0.00134246  0.00131853  1
  Ni  Ni19  1  0.83559356  0.16909127  0.16609003  1
  Cr  Cr20  1  0.66711745  0.00063673  0.33375462  1
  Ni  Ni21  1  0.66693157  0.33530944  1.00015796  1
  Ni  Ni22  1  0.83366404  0.50030491  0.16686273  1
  Ni  Ni23  1  0.66725113  0.33497250  0.33365917  1
  Ni  Ni24  1  0.66601622  0.66472958  0.00166421  1
  Ni  Ni25  1  0.83575175  0.83168781  0.16718684  1
  Ni  Ni26  1  0.66677054  0.66547456  0.33328763  1
  Ni  Ni27  1  0.16725263  0.16703307  0.49994942  1
  Ni  Ni28  1  0.00170060  0.00149348  0.66604363  1
  Ni  Ni29  1  0.16803283  0.16706278  0.83384246  1
  Ni  Ni30  1  0.16696524  0.49992018  0.50072895  1
  Ni  Ni31  1  0.00089303  0.33385198  0.66720974  1
  Ni  Ni32  1  0.16670074  0.49966805  0.83346903  1
  Ni  Ni33  1  0.16678662  0.83398941  0.50081467  1
  Ni  Ni34  1  0.00298433  0.66580897  0.66603092  1
  Ni  Ni35  1  0.16809521  0.83435384  0.83365491  1
  Ni  Ni36  1  0.49908564  0.16822610  0.50117032  1
  Ni  Ni37  1  0.33339008  0.00050438  0.66704044  1
  Ni  Ni38  1  0.49830737  0.16827983  0.83264306  1
  Ni  Ni39  1  0.49949282  0.49883684  0.49945185  1
  Ni  Ni40  1  0.33314127  0.33385265  0.66683955  1
  Ni  Ni41  1  0.49978237  0.49859392  0.83468138  1
  Ni  Ni42  1  0.49842352  0.83391629  0.50068497  1
  Ni  Ni43  1  0.33164099  0.66666368  0.66746748  1
  Ni  Ni44  1  0.49749879  0.83419482  0.83365632  1
  Ni  Ni45  1  0.83464333  0.16807324  0.50216187  1
  Ni  Ni46  1  0.66594660  0.00268303  0.66607090  1
  Fe  Fe47  1  0.83476575  0.16888936  0.83303921  1
  Ni  Ni48  1  0.83452262  0.49933636  0.49935251  1
  Ni  Ni49  1  0.66703820  0.33215844  0.66722775  1
  Ni  Ni50  1  0.83444431  0.49845461  0.83466738  1
  Ni  Ni51  1  0.83565546  0.83361418  0.50003755  1
  Cr  Cr52  1  0.66545685  0.66584204  0.66558253  1
  Cr  Cr53  1  0.83599878  0.83263938  0.83364978  1
" 