14,Ni92Fe7Cr0_3,-239.647042602929, 183.409927268878,Ni92Fe7Cr0,"# generated using pymatgen
 data_Cr2Fe3Ni49
_symmetry_space_group_name_H-M   'P 1'
_cell_length_a   7.45153291
_cell_length_b   7.45153291
_cell_length_c   10.53805890
_cell_angle_alpha   90.00000000
_cell_angle_beta   90.00000000
_cell_angle_gamma   90.00000000
_symmetry_Int_Tables_number   1
_chemical_formula_structural   Cr2Fe3Ni49
_chemical_formula_sum   'Cr2 Fe3 Ni49'
_cell_volume   585.12933174
_cell_formula_units_Z   1
loop_
 _symmetry_equiv_pos_site_id
 _symmetry_equiv_pos_as_xyz
  1  'x, y, z'
loop_
 _atom_site_type_symbol
 _atom_site_label
 _atom_site_symmetry_multiplicity
 _atom_site_fract_x
 _atom_site_fract_y
 _atom_site_fract_z
 _atom_site_occupancy
  Ni  Ni0  1  0.00170009  0.00137559  0.00106068  1
  Ni  Ni1  1  0.16826265  0.16560167  0.16773405  1
  Ni  Ni2  1  0.00113956  0.00110853  0.33450382  1
  Ni  Ni3  1  0.99930761  0.33277774  1.00053746  1
  Cr  Cr4  1  0.16677849  0.49974452  0.16882694  1
  Ni  Ni5  1  0.99938482  0.33289465  0.33484474  1
  Ni  Ni6  1  0.99825834  0.66909028  1.00004219  1
  Ni  Ni7  1  0.16592047  0.83655834  0.16798204  1
  Ni  Ni8  1  0.99999416  0.66909119  0.33493935  1
  Ni  Ni9  1  0.33367114  0.00272843  0.00120681  1
  Ni  Ni10  1  0.50097862  0.16801593  0.16714638  1
  Ni  Ni11  1  0.33408112  1.00099800  0.33407872  1
  Ni  Ni12  1  0.33582245  0.33175359  1.00015002  1
  Ni  Ni13  1  0.50312468  0.49947170  0.16845270  1
  Ni  Ni14  1  0.33581331  0.33314331  0.33497282  1
  Cr  Cr15  1  0.33571726  0.66873273  1.00007684  1
  Fe  Fe16  1  0.50195413  0.83534557  0.16868057  1
  Ni  Ni17  1  0.33533057  0.66897800  0.33514491  1
  Fe  Fe18  1  0.66841412  0.00169466  1.00069529  1
  Ni  Ni19  1  0.83395068  0.16683267  0.16737753  1
  Ni  Ni20  1  0.66794168  0.00146033  0.33378357  1
  Ni  Ni21  1  0.66793464  0.33506639  1.00075900  1
  Ni  Ni22  1  0.83249571  0.50181811  0.16733602  1
  Ni  Ni23  1  0.66793782  0.33431396  0.33451392  1
  Ni  Ni24  1  0.66920578  0.66689955  0.00129775  1
  Ni  Ni25  1  0.83481310  0.83452144  0.16753765  1
  Ni  Ni26  1  0.66779988  0.66741259  0.33407016  1
  Ni  Ni27  1  0.16804395  0.16773859  0.50044887  1
  Ni  Ni28  1  1.00096972  0.00149062  0.66752191  1
  Ni  Ni29  1  0.16798867  0.16831177  0.83494280  1
  Ni  Ni30  1  0.16785013  0.50113494  0.50081469  1
  Ni  Ni31  1  1.00053126  0.33396002  0.66775388  1
  Ni  Ni32  1  0.16689270  0.49946607  0.83384894  1
  Ni  Ni33  1  0.16758280  0.83430568  0.50162531  1
  Ni  Ni34  1  1.00068854  0.66781306  0.66825078  1
  Fe  Fe35  1  0.16690087  0.83547464  0.83344649  1
  Ni  Ni36  1  0.50106158  0.16721521  0.50158762  1
  Ni  Ni37  1  0.33444792  1.00097503  0.66785043  1
  Ni  Ni38  1  0.50055905  0.16716626  0.83433994  1
  Ni  Ni39  1  0.50073602  0.50114157  0.50124863  1
  Ni  Ni40  1  0.33453007  0.33413344  0.66810918  1
  Ni  Ni41  1  0.50151086  0.50063171  0.83347298  1
  Ni  Ni42  1  0.50150388  0.83479390  0.50042740  1
  Ni  Ni43  1  0.33489920  0.66811331  0.66789629  1
  Ni  Ni44  1  0.50298903  0.83545570  0.83416423  1
  Ni  Ni45  1  0.83400896  0.16688979  0.50118422  1
  Ni  Ni46  1  0.66770841  0.00110762  0.66818141  1
  Ni  Ni47  1  0.83461380  0.16694079  0.83445763  1
  Ni  Ni48  1  0.83455212  0.50161545  0.50084936  1
  Ni  Ni49  1  0.66807227  0.33436696  0.66783378  1
  Ni  Ni50  1  0.83465303  0.50183050  0.83493479  1
  Ni  Ni51  1  0.83403102  0.83461066  0.50118953  1
  Ni  Ni52  1  0.66751849  0.66769465  0.66774735  1
  Ni  Ni53  1  0.83363898  0.83440881  0.83433583  1
" 