8132,Ni92Fe5Cr2_7,-238.542020032142, 178.204360999383,Ni92Fe5Cr2,"# generated using pymatgen
 data_Cr3Fe2Ni49
_symmetry_space_group_name_H-M   'P 1'
_cell_length_a   7.45752406
_cell_length_b   7.45752406
_cell_length_c   10.54653166
_cell_angle_alpha   90.00000000
_cell_angle_beta   90.00000000
_cell_angle_gamma   90.00000000
_symmetry_Int_Tables_number   1
_chemical_formula_structural   Cr3Fe2Ni49
_chemical_formula_sum   'Cr3 Fe2 Ni49'
_cell_volume   586.54182559
_cell_formula_units_Z   1
loop_
 _symmetry_equiv_pos_site_id
 _symmetry_equiv_pos_as_xyz
  1  'x, y, z'
loop_
 _atom_site_type_symbol
 _atom_site_label
 _atom_site_symmetry_multiplicity
 _atom_site_fract_x
 _atom_site_fract_y
 _atom_site_fract_z
 _atom_site_occupancy
  Ni  Ni0  1  0.00298361  0.00070913  0.99976679  1
  Fe  Fe1  1  0.16787787  0.16733391  0.16757490  1
  Ni  Ni2  1  0.00132511  0.00129878  0.33486516  1
  Fe  Fe3  1  1.00061645  0.33454251  1.00041952  1
  Ni  Ni4  1  0.16753042  0.50122698  0.16727250  1
  Ni  Ni5  1  0.99948889  0.33324223  0.33258092  1
  Ni  Ni6  1  0.00152834  0.66701639  0.99983800  1
  Ni  Ni7  1  0.16897654  0.83335676  0.16732952  1
  Ni  Ni8  1  1.00057294  0.66737504  0.33396657  1
  Ni  Ni9  1  0.33197970  0.00074114  0.00077216  1
  Ni  Ni10  1  0.50030238  0.16824198  0.16815785  1
  Ni  Ni11  1  0.33385971  1.00052293  0.33362746  1
  Ni  Ni12  1  0.33456287  0.33419765  1.00054183  1
  Ni  Ni13  1  0.50008813  0.50010507  0.16733021  1
  Ni  Ni14  1  0.33492331  0.33324342  0.33326326  1
  Ni  Ni15  1  0.33343858  0.66697729  0.00084308  1
  Ni  Ni16  1  0.49772104  0.83356547  0.16812526  1
  Ni  Ni17  1  0.33461140  0.66814777  0.33272776  1
  Cr  Cr18  1  0.66675843  0.00149195  0.99964103  1
  Ni  Ni19  1  0.83409019  0.16969469  0.16822657  1
  Ni  Ni20  1  0.66673110  0.00161195  0.33469179  1
  Ni  Ni21  1  0.66691478  0.33565074  0.00084397  1
  Ni  Ni22  1  0.83429845  0.49865268  0.16739994  1
  Ni  Ni23  1  0.66750586  0.33399471  0.33378769  1
  Ni  Ni24  1  0.66694477  0.66443072  0.99986925  1
  Cr  Cr25  1  0.83465290  0.83359713  0.16813558  1
  Ni  Ni26  1  0.66672895  0.66630867  0.33452813  1
  Ni  Ni27  1  0.16725238  0.16560582  0.50015594  1
  Ni  Ni28  1  0.00064641  1.00061996  0.66728505  1
  Ni  Ni29  1  0.16735746  0.16715578  0.83435744  1
  Cr  Cr30  1  0.16746997  0.50066767  0.50100338  1
  Ni  Ni31  1  0.99980896  0.33313599  0.66856550  1
  Ni  Ni32  1  0.16735859  0.50081139  0.83403183  1
  Ni  Ni33  1  0.16708549  0.83560379  0.50043056  1
  Ni  Ni34  1  0.99980463  0.66816029  0.66811336  1
  Ni  Ni35  1  0.16710311  0.83395021  0.83415493  1
  Ni  Ni36  1  0.50083839  0.16712642  0.50060812  1
  Ni  Ni37  1  0.33375497  0.00084828  0.66751825  1
  Ni  Ni38  1  0.49988125  0.16806763  0.83314973  1
  Ni  Ni39  1  0.50213681  0.50048016  0.50037503  1
  Ni  Ni40  1  0.33482169  0.33313488  0.66811463  1
  Ni  Ni41  1  0.50047941  0.50049703  0.83421088  1
  Ni  Ni42  1  0.50078048  0.83430871  0.50019695  1
  Ni  Ni43  1  0.33459734  0.66793252  0.66834776  1
  Ni  Ni44  1  0.49981925  0.83334812  0.83359154  1
  Ni  Ni45  1  0.83382530  0.16696000  0.50043011  1
  Ni  Ni46  1  0.66751439  0.00084379  0.66738924  1
  Ni  Ni47  1  0.83467930  0.16781411  0.83325400  1
  Ni  Ni48  1  0.83253142  0.50064691  0.50019666  1
  Ni  Ni49  1  0.66728571  0.33397744  0.66728516  1
  Ni  Ni50  1  0.83407869  0.50075182  0.83431448  1
  Ni  Ni51  1  0.83404942  0.83430873  0.50055550  1
  Ni  Ni52  1  0.66751421  0.66709421  0.66751802  1
  Ni  Ni53  1  0.83499233  0.83335072  0.83319935  1
" 