2876,Ni92Fe7Cr0_16,-239.716353698918, 183.855563001304,Ni92Fe7Cr0,"# generated using pymatgen
 data_Cr2Fe3Ni49
_symmetry_space_group_name_H-M   'P 1'
_cell_length_a   7.45483639
_cell_length_b   7.45483639
_cell_length_c   10.54273072
_cell_angle_alpha   90.00000000
_cell_angle_beta   90.00000000
_cell_angle_gamma   90.00000000
_symmetry_Int_Tables_number   1
_chemical_formula_structural   Cr2Fe3Ni49
_chemical_formula_sum   'Cr2 Fe3 Ni49'
_cell_volume   585.90789042
_cell_formula_units_Z   1
loop_
 _symmetry_equiv_pos_site_id
 _symmetry_equiv_pos_as_xyz
  1  'x, y, z'
loop_
 _atom_site_type_symbol
 _atom_site_label
 _atom_site_symmetry_multiplicity
 _atom_site_fract_x
 _atom_site_fract_y
 _atom_site_fract_z
 _atom_site_occupancy
  Ni  Ni0  1  1.00015046  0.99995767  0.00081903  1
  Ni  Ni1  1  0.16795250  0.16728128  0.16730188  1
  Ni  Ni2  1  1.00026506  1.00067556  0.33362066  1
  Fe  Fe3  1  0.00217822  0.33273946  0.99988817  1
  Ni  Ni4  1  0.16934425  0.50081785  0.16753186  1
  Ni  Ni5  1  0.00139453  0.33354483  0.33426372  1
  Ni  Ni6  1  0.00227511  0.66894178  1.00000943  1
  Ni  Ni7  1  0.16768534  0.83435201  0.16794042  1
  Ni  Ni8  1  0.00157005  0.66823672  0.33492149  1
  Ni  Ni9  1  0.33332908  0.99999575  0.00162694  1
  Ni  Ni10  1  0.50044492  0.16711158  0.16790038  1
  Ni  Ni11  1  0.33425162  0.00091829  0.33361321  1
  Ni  Ni12  1  0.33443297  0.33564238  0.00186625  1
  Ni  Ni13  1  0.49879235  0.50073324  0.16759115  1
  Ni  Ni14  1  0.33442665  0.33460601  0.33368720  1
  Ni  Ni15  1  0.33329100  0.66681712  0.00081903  1
  Ni  Ni16  1  0.50061462  0.83461916  0.16730188  1
  Ni  Ni17  1  0.33400889  0.66693172  0.33362066  1
  Ni  Ni18  1  0.66897571  0.00109963  0.00186625  1
  Ni  Ni19  1  0.83406657  0.16545901  0.16759115  1
  Ni  Ni20  1  0.66793934  0.00109331  0.33368720  1
  Ni  Ni21  1  0.66685537  0.33352204  1.00081534  1
  Cr  Cr22  1  0.83449221  0.50115888  0.16815149  1
  Ni  Ni23  1  0.66663850  0.33330516  0.33502905  1
  Fe  Fe24  1  0.66607279  0.66884488  0.99988817  1
  Ni  Ni25  1  0.83415119  0.83601091  0.16753186  1
  Ni  Ni26  1  0.66687817  0.66806119  0.33426372  1
  Ni  Ni27  1  0.16766617  0.16818016  0.50101040  1
  Ni  Ni28  1  1.00049359  0.00090244  0.66801584  1
  Ni  Ni29  1  0.16582025  0.16746095  0.83414890  1
  Ni  Ni30  1  0.16728978  0.50011914  0.50062813  1
  Ni  Ni31  1  1.00057557  0.33413603  0.66842460  1
  Ni  Ni32  1  0.16721590  0.50099063  0.83429837  1
  Fe  Fe33  1  0.16749176  0.83415843  0.50081917  1
  Ni  Ni34  1  1.00075102  0.66741769  0.66752485  1
  Ni  Ni35  1  0.16733296  0.83399963  0.83369575  1
  Ni  Ni36  1  0.50041781  0.16708447  0.50063468  1
  Ni  Ni37  1  0.33342789  1.00009456  0.66720945  1
  Cr  Cr38  1  0.50026806  0.16693472  0.83337932  1
  Ni  Ni39  1  0.50061816  0.50104068  0.50081922  1
  Ni  Ni40  1  0.33360830  0.33519761  0.66689658  1
  Ni  Ni41  1  0.50073892  0.50267961  0.83405082  1
  Ni  Ni42  1  0.50151350  0.83433283  0.50101040  1
  Ni  Ni43  1  0.33423578  0.66716026  0.66801584  1
  Ni  Ni44  1  0.50079428  0.83248692  0.83414890  1
  Ni  Ni45  1  0.83437402  0.16728482  0.50081922  1
  Ni  Ni46  1  0.66853095  1.00027496  0.66689658  1
  Ni  Ni47  1  0.83601294  0.16740559  0.83405082  1
  Ni  Ni48  1  0.83454815  0.50121481  0.50100393  1
  Ni  Ni49  1  0.66827372  0.33494039  0.66660478  1
  Ni  Ni50  1  0.83450402  0.50117069  0.83362151  1
  Ni  Ni51  1  0.83345247  0.83395645  0.50062813  1
  Ni  Ni52  1  0.66746936  0.66724224  0.66842460  1
  Ni  Ni53  1  0.83432396  0.83388256  0.83429837  1
" 