1392,Ni92Cr8_17,-202.79563248382, 186.237430228839,Ni92Cr8,"# generated using pymatgen
 data_Cr49Ni5
_symmetry_space_group_name_H-M   'P 1'
_cell_length_a   7.59672158
_cell_length_b   7.59672158
_cell_length_c   10.74338669
_cell_angle_alpha   90.00000000
_cell_angle_beta   90.00000000
_cell_angle_gamma   90.00000000
_symmetry_Int_Tables_number   1
_chemical_formula_structural   Cr49Ni5
_chemical_formula_sum   'Cr49 Ni5'
_cell_volume   620.00276637
_cell_formula_units_Z   1
loop_
 _symmetry_equiv_pos_site_id
 _symmetry_equiv_pos_as_xyz
  1  'x, y, z'
loop_
 _atom_site_type_symbol
 _atom_site_label
 _atom_site_symmetry_multiplicity
 _atom_site_fract_x
 _atom_site_fract_y
 _atom_site_fract_z
 _atom_site_occupancy
  Cr  Cr0  1  0.98944388  0.99049963  0.99126876  1
  Cr  Cr1  1  0.15754959  0.15755191  0.15860049  1
  Cr  Cr2  1  -0.00838316  -0.00835218  0.32491722  1
  Cr  Cr3  1  -0.00830386  0.32576288  0.99126831  1
  Cr  Cr4  1  0.15868256  0.49282868  0.15897870  1
  Cr  Cr5  1  -0.00836286  0.32461585  0.32491677  1
  Cr  Cr6  1  0.99102116  0.65812992  0.98955613  1
  Cr  Cr7  1  0.15926219  0.82401368  0.15996523  1
  Cr  Cr8  1  -0.00792004  0.65813158  0.32433446  1
  Cr  Cr9  1  0.32628041  -0.00779461  -0.00818505  1
  Cr  Cr10  1  0.49337439  0.15813566  0.15575791  1
  Cr  Cr11  1  0.32469542  0.99062070  0.32491754  1
  Cr  Cr12  1  0.32515369  0.32518360  0.99033334  1
  Cr  Cr13  1  0.49169725  0.49169784  0.15860175  1
  Cr  Cr14  1  0.32468580  0.32565343  0.32491665  1
  Cr  Cr15  1  0.32411571  0.65700481  0.99108570  1
  Cr  Cr16  1  0.49053651  0.82456287  0.15860422  1
  Ni  Ni17  1  0.32460681  0.65812482  0.32499488  1
  Ni  Ni18  1  0.65910972  -0.00737608  0.99048623  1
  Cr  Cr19  1  0.82347356  0.15871235  0.15669535  1
  Cr  Cr20  1  0.65808321  0.99106987  0.32509729  1
  Ni  Ni21  1  0.65808839  0.32262360  -0.00834687  1
  Cr  Cr22  1  0.82401448  0.48998664  0.15805021  1
  Cr  Cr23  1  0.65807291  0.32518425  0.32509858  1
  Cr  Cr24  1  0.65925822  0.65925752  0.99068703  1
  Cr  Cr25  1  0.82459601  0.82569648  0.15706886  1
  Cr  Cr26  1  0.65704036  0.65814174  0.32550070  1
  Cr  Cr27  1  0.15755236  0.15755197  0.49169700  1
  Cr  Cr28  1  0.99068242  0.99068251  0.65821259  1
  Cr  Cr29  1  0.15807094  0.15916904  0.82409909  1
  Cr  Cr30  1  0.15867710  0.49248684  0.49097093  1
  Cr  Cr31  1  -0.00706093  0.32558169  0.65821138  1
  Ni  Ni32  1  0.15795496  0.49178048  0.82465651  1
  Cr  Cr33  1  0.15925791  0.82435589  0.48998494  1
  Cr  Cr34  1  0.99065296  0.65813024  0.66050724  1
  Cr  Cr35  1  0.15704634  0.82336471  0.82445050  1
  Cr  Cr36  1  0.49181263  0.15813172  0.49227899  1
  Cr  Cr37  1  0.32503352  -0.00760971  0.65766298  1
  Cr  Cr38  1  0.49302789  0.15813331  0.82635008  1
  Cr  Cr39  1  0.49125479  0.49247914  0.49056700  1
  Cr  Cr40  1  0.32390442  0.32500266  0.65914744  1
  Cr  Cr41  1  0.49086149  0.49073427  0.82522639  1
  Cr  Cr42  1  0.49009551  0.82378425  0.49056622  1
  Cr  Cr43  1  0.32448280  0.65700261  0.65897536  1
  Cr  Cr44  1  0.49293231  0.82553126  0.82522721  1
  Cr  Cr45  1  0.82503043  0.15871105  0.49134444  1
  Cr  Cr46  1  0.65867941  0.99010612  0.65838267  1
  Cr  Cr47  1  0.82329842  0.15709821  0.82634593  1
  Cr  Cr48  1  0.82446159  0.49077257  0.49111368  1
  Cr  Cr49  1  0.65755148  0.32503080  0.65690137  1
  Cr  Cr50  1  0.82545071  0.49175825  0.82522420  1
  Cr  Cr51  1  0.82504145  0.82491128  0.49209760  1
  Cr  Cr52  1  0.65925961  0.65925940  0.65821078  1
  Ni  Ni53  1  0.82423250  0.82550934  0.82553448  1
" 