2907,Ni92Fe4Cr2_18,-239.294370551113, 180.634331464855,Ni92Fe4Cr2,"# generated using pymatgen
 data_CrFeNi25
_symmetry_space_group_name_H-M   'P 1'
_cell_length_a   7.45625409
_cell_length_b   7.45625409
_cell_length_c   10.54473566
_cell_angle_alpha   90.00000000
_cell_angle_beta   90.00000000
_cell_angle_gamma   90.00000000
_symmetry_Int_Tables_number   1
_chemical_formula_structural   CrFeNi25
_chemical_formula_sum   'Cr2 Fe2 Ni50'
_cell_volume   586.24222507
_cell_formula_units_Z   2
loop_
 _symmetry_equiv_pos_site_id
 _symmetry_equiv_pos_as_xyz
  1  'x, y, z'
loop_
 _atom_site_type_symbol
 _atom_site_label
 _atom_site_symmetry_multiplicity
 _atom_site_fract_x
 _atom_site_fract_y
 _atom_site_fract_z
 _atom_site_occupancy
  Ni  Ni0  1  0.99949307  0.99985080  0.00192289  1
  Ni  Ni1  1  0.16758561  0.16730960  0.16773981  1
  Ni  Ni2  1  0.00238196  1.00067095  0.33395238  1
  Ni  Ni3  1  0.99968623  0.33508778  0.00166853  1
  Ni  Ni4  1  0.16701382  0.50057794  0.16741000  1
  Ni  Ni5  1  0.00097434  0.33426946  0.33397181  1
  Ni  Ni6  1  0.00107897  0.66724187  0.99987921  1
  Ni  Ni7  1  0.16701359  0.83428397  0.16764965  1
  Ni  Ni8  1  0.00106387  0.66725293  0.33463378  1
  Ni  Ni9  1  0.33495062  0.99924460  0.00162947  1
  Ni  Ni10  1  0.49959211  0.16845804  0.16621819  1
  Ni  Ni11  1  0.33229505  1.00045178  0.33429371  1
  Ni  Ni12  1  0.33476265  0.33569524  0.00137841  1
  Ni  Ni13  1  0.50121019  0.50051051  0.16789301  1
  Ni  Ni14  1  0.33369466  0.33451173  0.33428361  1
  Ni  Ni15  1  0.33389646  0.66723809  1.00057390  1
  Ni  Ni16  1  0.50006132  0.83319095  0.16677901  1
  Ni  Ni17  1  0.33380118  0.66721689  0.33425120  1
  Ni  Ni18  1  0.66775710  1.00068870  1.00001230  1
  Ni  Ni19  1  0.83501700  0.16843866  0.16693194  1
  Cr  Cr20  1  0.66737714  1.00046054  0.33413315  1
  Ni  Ni21  1  0.66775606  0.33407761  1.00044942  1
  Ni  Ni22  1  0.83395131  0.50107700  0.16754878  1
  Ni  Ni23  1  0.66752327  0.33587428  0.33428783  1
  Ni  Ni24  1  0.66720164  0.66741318  0.00104606  1
  Ni  Ni25  1  0.83507684  0.83269089  0.16649582  1
  Ni  Ni26  1  0.66732083  0.66588231  0.33394798  1
  Ni  Ni27  1  0.16816849  0.16732117  0.50024201  1
  Ni  Ni28  1  0.99976676  1.00045733  0.66632022  1
  Cr  Cr29  1  0.16809542  0.16726682  0.83481162  1
  Ni  Ni30  1  0.16696607  0.50010088  0.50094822  1
  Ni  Ni31  1  0.99996429  0.33445339  0.66658023  1
  Ni  Ni32  1  0.16716616  0.50204088  0.83373245  1
  Ni  Ni33  1  0.16694434  0.83477127  0.50071237  1
  Fe  Fe34  1  1.00071108  0.66716833  0.66738665  1
  Ni  Ni35  1  0.16716062  0.83288137  0.83372698  1
  Ni  Ni36  1  0.49876096  0.16842642  0.50210206  1
  Ni  Ni37  1  0.33457914  0.99914486  0.66636483  1
  Ni  Ni38  1  0.50231826  0.16740542  0.83388351  1
  Ni  Ni39  1  0.50147213  0.50031849  0.50045711  1
  Ni  Ni40  1  0.33440225  0.33579699  0.66661856  1
  Ni  Ni41  1  0.50129131  0.50062454  0.83383604  1
  Ni  Ni42  1  0.50043526  0.83345986  0.50151138  1
  Ni  Ni43  1  0.33455346  0.66723505  0.66734729  1
  Ni  Ni44  1  0.50112275  0.83414141  0.83383860  1
  Fe  Fe45  1  0.83485257  0.16833572  0.50152115  1
  Ni  Ni46  1  0.66784414  1.00018711  0.66781413  1
  Ni  Ni47  1  0.83256135  0.16740902  0.83349514  1
  Ni  Ni48  1  0.83371257  0.50154237  0.50046153  1
  Ni  Ni49  1  0.66785308  0.33457913  0.66737410  1
  Ni  Ni50  1  0.83365675  0.50092846  0.83414812  1
  Ni  Ni51  1  0.83483133  0.83214471  0.50154635  1
  Ni  Ni52  1  0.66652668  0.66743254  0.66719662  1
  Ni  Ni53  1  0.83383056  0.83384478  0.83412553  1
" 