8315,Ni92Fe5Cr2_0,-238.540219520856, 177.957067192917,Ni92Fe5Cr2,"# generated using pymatgen
 data_Cr3Fe2Ni49
_symmetry_space_group_name_H-M   'P 1'
_cell_length_a   7.45773742
_cell_length_b   7.45773742
_cell_length_c   10.54683340
_cell_angle_alpha   90.00000000
_cell_angle_beta   90.00000000
_cell_angle_gamma   90.00000000
_symmetry_Int_Tables_number   1
_chemical_formula_structural   Cr3Fe2Ni49
_chemical_formula_sum   'Cr3 Fe2 Ni49'
_cell_volume   586.59217109
_cell_formula_units_Z   1
loop_
 _symmetry_equiv_pos_site_id
 _symmetry_equiv_pos_as_xyz
  1  'x, y, z'
loop_
 _atom_site_type_symbol
 _atom_site_label
 _atom_site_symmetry_multiplicity
 _atom_site_fract_x
 _atom_site_fract_y
 _atom_site_fract_z
 _atom_site_occupancy
  Ni  Ni0  1  1.00001330  0.00092629  1.00052106  1
  Ni  Ni1  1  0.16560506  0.16517796  0.16829930  1
  Ni  Ni2  1  1.00033918  0.00068134  0.33376581  1
  Ni  Ni3  1  0.99869940  0.33292216  0.99950089  1
  Cr  Cr4  1  0.16717186  0.50206005  0.16867603  1
  Ni  Ni5  1  0.99978002  0.33279602  0.33505626  1
  Ni  Ni6  1  0.99894678  0.66807365  0.99987987  1
  Ni  Ni7  1  0.16682095  0.83518053  0.16686951  1
  Ni  Ni8  1  0.99933075  0.66840609  0.33452133  1
  Ni  Ni9  1  0.33458437  0.99950294  0.00105934  1
  Ni  Ni10  1  0.50233970  0.16643941  0.16831835  1
  Ni  Ni11  1  0.33425077  0.00103862  0.33299768  1
  Cr  Cr12  1  0.33455878  0.33201829  0.99960672  1
  Ni  Ni13  1  0.50261641  0.50187103  0.16822220  1
  Ni  Ni14  1  0.33503633  0.33274471  0.33519552  1
  Ni  Ni15  1  0.33545036  0.66931222  0.99942613  1
  Ni  Ni16  1  0.50122597  0.83349608  0.16717702  1
  Ni  Ni17  1  0.33517437  0.66812181  0.33471014  1
  Ni  Ni18  1  0.66729885  0.99972373  1.00050871  1
  Ni  Ni19  1  0.83394764  0.16644311  0.16710234  1
  Ni  Ni20  1  0.66726813  1.00055935  0.33413362  1
  Fe  Fe21  1  0.66835642  0.33334756  1.00051486  1
  Fe  Fe22  1  0.83268928  0.50097103  0.16752851  1
  Ni  Ni23  1  0.66704035  0.33384108  0.33291499  1
  Ni  Ni24  1  0.66748135  0.66812151  1.00059519  1
  Ni  Ni25  1  0.83378823  0.83500497  0.16742601  1
  Ni  Ni26  1  0.66734395  0.66751755  0.33412043  1
  Ni  Ni27  1  0.16693198  0.16746174  0.50028805  1
  Ni  Ni28  1  1.00046543  0.00245559  0.66756624  1
  Ni  Ni29  1  0.16599091  0.16646671  0.83326285  1
  Ni  Ni30  1  0.16838952  0.49969977  0.49993163  1
  Ni  Ni31  1  1.00061851  0.33248748  0.66745352  1
  Ni  Ni32  1  0.16737601  0.50066964  0.83360595  1
  Ni  Ni33  1  0.16826982  0.83473790  0.49911486  1
  Cr  Cr34  1  0.99979531  0.66746739  0.66716107  1
  Ni  Ni35  1  0.16815357  0.83472571  0.83580711  1
  Ni  Ni36  1  0.50116043  0.16751145  0.50028656  1
  Ni  Ni37  1  0.33424984  0.00111162  0.66782673  1
  Ni  Ni38  1  0.50191796  0.16617325  0.83323955  1
  Ni  Ni39  1  0.50064283  0.50061075  0.50064172  1
  Ni  Ni40  1  0.33409926  0.33364974  0.66704180  1
  Ni  Ni41  1  0.50147151  0.50189018  0.83292197  1
  Ni  Ni42  1  0.50078702  0.83375850  0.50053764  1
  Ni  Ni43  1  0.33583280  0.66711890  0.66781489  1
  Ni  Ni44  1  0.50091834  0.83379132  0.83418225  1
  Ni  Ni45  1  0.83378702  0.16734127  0.50087661  1
  Ni  Ni46  1  0.66715591  1.00057682  0.66721534  1
  Ni  Ni47  1  0.83403191  0.16706726  0.83383628  1
  Ni  Ni48  1  0.83281380  0.49928795  0.49879652  1
  Ni  Ni49  1  0.66718621  0.33404160  0.66817169  1
  Ni  Ni50  1  0.83301783  0.49957685  0.83588004  1
  Ni  Ni51  1  0.83281190  0.83529398  0.49971530  1
  Ni  Ni52  1  0.66586043  0.66724810  0.66721983  1
  Ni  Ni53  1  0.83281198  0.83518602  0.83466281  1
" 