6921,Ni92Cr8_12,-202.839776422139, 186.91633830834,Ni92Cr8,"# generated using pymatgen
 data_Cr49Ni5
_symmetry_space_group_name_H-M   'P 1'
_cell_length_a   7.59303809
_cell_length_b   7.59303809
_cell_length_c   10.73817745
_cell_angle_alpha   90.00000000
_cell_angle_beta   90.00000000
_cell_angle_gamma   90.00000000
_symmetry_Int_Tables_number   1
_chemical_formula_structural   Cr49Ni5
_chemical_formula_sum   'Cr49 Ni5'
_cell_volume   619.10132457
_cell_formula_units_Z   1
loop_
 _symmetry_equiv_pos_site_id
 _symmetry_equiv_pos_as_xyz
  1  'x, y, z'
loop_
 _atom_site_type_symbol
 _atom_site_label
 _atom_site_symmetry_multiplicity
 _atom_site_fract_x
 _atom_site_fract_y
 _atom_site_fract_z
 _atom_site_occupancy
  Cr  Cr0  1  0.98923520  0.99089923  0.99052326  1
  Cr  Cr1  1  0.15790804  0.15794022  0.15750074  1
  Cr  Cr2  1  0.98943620  0.99170355  0.32503689  1
  Cr  Cr3  1  0.99033380  0.32310687  0.99107458  1
  Cr  Cr4  1  0.15673343  0.49129040  0.15775249  1
  Cr  Cr5  1  0.99109341  0.32374263  0.32644758  1
  Cr  Cr6  1  0.98967708  0.66118086  -0.00746294  1
  Cr  Cr7  1  0.15671598  0.82588573  0.15837963  1
  Cr  Cr8  1  0.99109341  0.65966447  0.32362620  1
  Cr  Cr9  1  0.32493377  0.99140593  0.99165617  1
  Cr  Cr10  1  0.49300019  0.15691808  0.15894875  1
  Cr  Cr11  1  0.32587939  0.99170355  0.32503689  1
  Cr  Cr12  1  0.32556059  0.32505852  -0.00733646  1
  Cr  Cr13  1  0.49324058  0.49126898  0.15742574  1
  Cr  Cr14  1  0.32521449  0.32544540  0.32470689  1
  Cr  Cr15  1  0.32563885  0.65859907  -0.00772002  1
  Cr  Cr16  1  0.49393469  0.82695114  0.15974169  1
  Cr  Cr17  1  0.32521449  0.65796171  0.32536688  1
  Cr  Cr18  1  0.66084899  0.99093321  0.99091375  1
  Cr  Cr19  1  0.82410966  0.15729533  0.15958916  1
  Ni  Ni20  1  0.66140841  0.99170355  0.32503689  1
  Cr  Cr21  1  0.65927719  0.32375926  0.99013090  1
  Cr  Cr22  1  0.82511153  0.49269731  0.15839356  1
  Cr  Cr23  1  0.65894918  0.32329575  0.32639747  1
  Cr  Cr24  1  0.65988341  0.66055680  0.99159331  1
  Ni  Ni25  1  0.82350880  0.82733882  0.15941367  1
  Cr  Cr26  1  0.65894918  0.66011135  0.32367630  1
  Cr  Cr27  1  0.15671598  0.15752138  0.49169414  1
  Cr  Cr28  1  0.98923520  -0.00749212  0.65955051  1
  Cr  Cr29  1  0.15748863  0.15818442  0.82596879  1
  Cr  Cr30  1  0.15673343  0.49211671  0.49232128  1
  Cr  Cr31  1  0.98967708  0.32222625  0.65753671  1
  Cr  Cr32  1  0.15721893  0.49170355  0.82503689  1
  Cr  Cr33  1  0.15790804  0.82546689  0.49257303  1
  Cr  Cr34  1  0.99033380  0.66030024  0.65899919  1
  Cr  Cr35  1  0.15748863  0.82522269  0.82410499  1
  Cr  Cr36  1  0.49393469  0.15645597  0.49033208  1
  Cr  Cr37  1  0.32493377  -0.00799883  0.65841760  1
  Cr  Cr38  1  0.49268290  0.15772914  0.82593218  1
  Cr  Cr39  1  0.49324058  0.49213813  0.49264804  1
  Cr  Cr40  1  0.32563885  0.32480803  0.65779379  1
  Cr  Cr41  1  0.49248890  0.49170355  0.82503689  1
  Cr  Cr42  1  0.49300019  0.82648903  0.49112503  1
  Cr  Cr43  1  0.32556059  0.65834859  0.65741023  1
  Cr  Cr44  1  0.49268290  0.82567797  0.82414160  1
  Ni  Ni45  1  0.82350880  0.15606829  0.49066011  1
  Cr  Cr46  1  0.66084899  -0.00752611  0.65916002  1
  Ni  Ni47  1  0.82497691  0.15567192  0.82456022  1
  Cr  Cr48  1  0.82511153  0.49070980  0.49168021  1
  Cr  Cr49  1  0.65988341  0.32285030  0.65848046  1
  Cr  Cr50  1  0.82544542  0.49170355  0.82503689  1
  Cr  Cr51  1  0.82410966  0.82611178  0.49048461  1
  Cr  Cr52  1  0.65927719  0.65964785  0.65994287  1
  Ni  Ni53  1  0.82497691  0.82773519  0.82551356  1
" 