2156,Ni92Fe2Cr4_0,-237.408616803266, 170.908308800011,Ni92Fe2Cr4,"# generated using pymatgen
 data_Cr4FeNi49
_symmetry_space_group_name_H-M   'P 1'
_cell_length_a   7.46456647
_cell_length_b   7.46456647
_cell_length_c   10.55649114
_cell_angle_alpha   90.00000000
_cell_angle_beta   90.00000000
_cell_angle_gamma   90.00000000
_symmetry_Int_Tables_number   1
_chemical_formula_structural   Cr4FeNi49
_chemical_formula_sum   'Cr4 Fe1 Ni49'
_cell_volume   588.20507396
_cell_formula_units_Z   1
loop_
 _symmetry_equiv_pos_site_id
 _symmetry_equiv_pos_as_xyz
  1  'x, y, z'
loop_
 _atom_site_type_symbol
 _atom_site_label
 _atom_site_symmetry_multiplicity
 _atom_site_fract_x
 _atom_site_fract_y
 _atom_site_fract_z
 _atom_site_occupancy
  Ni  Ni0  1  0.99986794  0.00046642  0.99982119  1
  Ni  Ni1  1  0.16709068  0.16681412  0.16707163  1
  Ni  Ni2  1  0.99961905  0.00097130  0.33434117  1
  Ni  Ni3  1  0.99993142  0.33337404  0.99976031  1
  Ni  Ni4  1  0.16689691  0.50012105  0.16687518  1
  Ni  Ni5  1  0.00061040  0.33311793  0.33414543  1
  Ni  Ni6  1  0.99986835  0.66665804  0.00021384  1
  Ni  Ni7  1  0.16689474  0.83356353  0.16690235  1
  Ni  Ni8  1  0.99961944  0.66640942  0.33369033  1
  Ni  Ni9  1  0.33405525  0.00046483  0.00022688  1
  Ni  Ni10  1  0.50005244  0.16671841  0.16657405  1
  Ni  Ni11  1  0.33341470  0.99982459  0.33278900  1
  Ni  Ni12  1  0.33379679  0.33318024  0.99956431  1
  Ni  Ni13  1  0.50005201  0.50002322  0.16697960  1
  Ni  Ni14  1  0.33222790  0.33406992  0.33319489  1
  Ni  Ni15  1  0.33386137  0.66685348  1.00001750  1
  Ni  Ni16  1  0.50014989  0.83375751  0.16707151  1
  Ni  Ni17  1  0.33436645  0.66660417  0.33414528  1
  Ni  Ni18  1  0.66657539  0.00040158  0.99977407  1
  Ni  Ni19  1  0.83335592  0.16671663  0.16697985  1
  Ni  Ni20  1  0.66746543  0.99883321  0.33298438  1
  Ni  Ni21  1  0.66677056  0.33318025  0.00047725  1
  Ni  Ni22  1  0.83355012  0.50021890  0.16678317  1
  Fe  Fe23  1  0.66779857  0.33440652  0.33224818  1
  Ni  Ni24  1  0.66676898  0.66691692  0.99956407  1
  Ni  Ni25  1  0.83345388  0.83356399  0.16687530  1
  Ni  Ni26  1  0.66651309  0.66759663  0.33434128  1
  Ni  Ni27  1  0.16404490  0.16770207  0.49981976  1
  Ni  Ni28  1  1.00007929  0.00051453  0.66633578  1
  Ni  Ni29  1  0.16620175  0.16771931  0.83360758  1
  Ni  Ni30  1  0.16694491  0.50007282  0.50070526  1
  Ni  Ni31  1  0.00208491  0.33353387  0.66659245  1
  Ni  Ni32  1  0.16715252  0.49984738  0.83291738  1
  Ni  Ni33  1  0.16579942  0.83272402  0.49953442  1
  Ni  Ni34  1  1.00007579  0.66645041  0.66659482  1
  Ni  Ni35  1  0.16600754  0.83293243  0.83406131  1
  Cr  Cr36  1  0.49908112  0.16754715  0.49765951  1
  Cr  Cr37  1  0.33137663  0.99946762  0.66756094  1
  Ni  Ni38  1  0.49927821  0.16772642  0.83630971  1
  Ni  Ni39  1  0.49916550  0.50306895  0.49991123  1
  Ni  Ni40  1  0.33054432  0.33643359  0.66773919  1
  Ni  Ni41  1  0.49928179  0.50079450  0.83360785  1
  Ni  Ni42  1  0.50040460  0.82982193  0.49867178  1
  Ni  Ni43  1  0.33370165  0.66469909  0.66633584  1
  Ni  Ni44  1  0.50042158  0.83197734  0.83475613  1
  Ni  Ni45  1  0.83729126  0.16646330  0.49876283  1
  Cr  Cr46  1  0.66915466  0.99762282  0.66794857  1
  Ni  Ni47  1  0.83501844  0.16657915  0.83475605  1
  Ni  Ni48  1  0.83438772  0.50131242  0.49965254  1
  Cr  Cr49  1  0.66769971  0.33578972  0.66744432  1
  Ni  Ni50  1  0.83406356  0.50098854  0.83406145  1
  Ni  Ni51  1  0.83429459  0.83272365  0.49981893  1
  Ni  Ni52  1  0.66672098  0.66670419  0.66659260  1
  Ni  Ni53  1  0.83406950  0.83293045  0.83380425  1
" 