305,Ni92Fe2Cr4_9,-237.394066721681, 172.537171924127,Ni92Fe2Cr4,"# generated using pymatgen
 data_Cr4FeNi49
_symmetry_space_group_name_H-M   'P 1'
_cell_length_a   7.46315476
_cell_length_b   7.46315476
_cell_length_c   10.55449468
_cell_angle_alpha   90.00000000
_cell_angle_beta   90.00000000
_cell_angle_gamma   90.00000000
_symmetry_Int_Tables_number   1
_chemical_formula_structural   Cr4FeNi49
_chemical_formula_sum   'Cr4 Fe1 Ni49'
_cell_volume   587.87141029
_cell_formula_units_Z   1
loop_
 _symmetry_equiv_pos_site_id
 _symmetry_equiv_pos_as_xyz
  1  'x, y, z'
loop_
 _atom_site_type_symbol
 _atom_site_label
 _atom_site_symmetry_multiplicity
 _atom_site_fract_x
 _atom_site_fract_y
 _atom_site_fract_z
 _atom_site_occupancy
  Ni  Ni0  1  0.00033196  0.00040025  0.00065503  1
  Ni  Ni1  1  0.16538152  0.16695961  0.16707943  1
  Ni  Ni2  1  0.00194280  0.00052260  0.33365095  1
  Ni  Ni3  1  1.00010860  0.33346571  0.00042213  1
  Ni  Ni4  1  0.16570439  0.49934371  0.16753039  1
  Ni  Ni5  1  0.99924709  0.33261693  0.33249042  1
  Ni  Ni6  1  0.99881813  0.66691218  1.00017787  1
  Ni  Ni7  1  0.16567946  0.83448616  0.16885056  1
  Ni  Ni8  1  0.99930361  0.66770677  0.33246768  1
  Ni  Ni9  1  0.33223783  0.00063253  0.99949859  1
  Cr  Cr10  1  0.49932797  0.16738347  0.16555663  1
  Ni  Ni11  1  0.33092598  0.99921309  0.33451156  1
  Ni  Ni12  1  0.33252290  0.33305489  0.99932540  1
  Ni  Ni13  1  0.50108998  0.50113866  0.16852155  1
  Ni  Ni14  1  0.33342854  0.33385792  0.33331285  1
  Cr  Cr15  1  0.33299841  0.66654752  1.00003138  1
  Ni  Ni16  1  0.50045683  0.83203071  0.16684546  1
  Ni  Ni17  1  0.33460591  0.66768860  0.33269224  1
  Ni  Ni18  1  0.66823390  0.99944614  0.99903729  1
  Ni  Ni19  1  0.83652801  0.16760986  0.16630279  1
  Cr  Cr20  1  0.66860334  0.99992375  0.33457092  1
  Ni  Ni21  1  0.66821089  0.33464634  0.99949120  1
  Ni  Ni22  1  0.83398904  0.50078296  0.16744120  1
  Ni  Ni23  1  0.66814985  0.33632817  0.33496012  1
  Ni  Ni24  1  0.66840751  0.66668340  0.00064579  1
  Ni  Ni25  1  0.83464824  0.83243393  0.16578749  1
  Ni  Ni26  1  0.66684856  0.66527098  0.33333483  1
  Ni  Ni27  1  0.16706592  0.16590294  0.49987189  1
  Ni  Ni28  1  1.00007819  0.00064399  0.66654419  1
  Ni  Ni29  1  0.16704310  0.16688741  0.83383488  1
  Cr  Cr30  1  0.16641024  0.49982864  0.50069927  1
  Ni  Ni31  1  0.99918948  0.33247851  0.66793941  1
  Ni  Ni32  1  0.16566100  0.49925815  0.83282105  1
  Fe  Fe33  1  0.16663651  0.83465955  0.50048434  1
  Ni  Ni34  1  0.99916428  0.66771549  0.66826711  1
  Ni  Ni35  1  0.16569725  0.83465142  0.83175149  1
  Ni  Ni36  1  0.49869226  0.16729543  0.50143835  1
  Ni  Ni37  1  0.33360005  0.00031069  0.66677782  1
  Ni  Ni38  1  0.50006997  0.16654479  0.83327275  1
  Ni  Ni39  1  0.50135098  0.50081940  0.49988367  1
  Ni  Ni40  1  0.33447811  0.33283205  0.66813860  1
  Ni  Ni41  1  0.50120776  0.49940668  0.83234286  1
  Ni  Ni42  1  0.50018934  0.83277298  0.50095151  1
  Ni  Ni43  1  0.33482162  0.66770117  0.66778912  1
  Ni  Ni44  1  0.50150325  0.83480337  0.83294392  1
  Ni  Ni45  1  0.83505862  0.16732727  0.50104333  1
  Ni  Ni46  1  0.66709536  0.00041146  0.66726277  1
  Ni  Ni47  1  0.83368367  0.16654314  0.83346517  1
  Ni  Ni48  1  0.83252968  0.50113833  0.50009204  1
  Ni  Ni49  1  0.66709901  0.33351282  0.66626924  1
  Ni  Ni50  1  0.83388381  0.50073763  0.83323798  1
  Ni  Ni51  1  0.83380068  0.83244972  0.50117146  1
  Ni  Ni52  1  0.66678177  0.66686909  0.66679934  1
  Ni  Ni53  1  0.83356034  0.83349446  0.83379814  1
" 