7615,Ni92Cr8_13,-202.791115215925, 185.866662873906,Ni92Cr8,"# generated using pymatgen
 data_Cr49Ni5
_symmetry_space_group_name_H-M   'P 1'
_cell_length_a   7.59520770
_cell_length_b   7.59520770
_cell_length_c   10.74124573
_cell_angle_alpha   90.00000000
_cell_angle_beta   90.00000000
_cell_angle_gamma   90.00000000
_symmetry_Int_Tables_number   1
_chemical_formula_structural   Cr49Ni5
_chemical_formula_sum   'Cr49 Ni5'
_cell_volume   619.63217518
_cell_formula_units_Z   1
loop_
 _symmetry_equiv_pos_site_id
 _symmetry_equiv_pos_as_xyz
  1  'x, y, z'
loop_
 _atom_site_type_symbol
 _atom_site_label
 _atom_site_symmetry_multiplicity
 _atom_site_fract_x
 _atom_site_fract_y
 _atom_site_fract_z
 _atom_site_occupancy
  Ni  Ni0  1  0.98736176  0.99017316  -0.00714632  1
  Cr  Cr1  1  0.15739748  0.15754648  0.15671609  1
  Cr  Cr2  1  0.99042922  0.99051573  0.32380519  1
  Cr  Cr3  1  -0.00827564  0.32371099  -0.00840085  1
  Cr  Cr4  1  0.15819205  0.49166861  0.15906404  1
  Cr  Cr5  1  -0.00751528  0.32535171  0.32642165  1
  Cr  Cr6  1  0.99038422  0.66038296  -0.00698033  1
  Cr  Cr7  1  0.15663499  0.82555475  0.15669733  1
  Cr  Cr8  1  0.99118680  0.65885024  0.32495342  1
  Cr  Cr9  1  0.32496616  -0.00825450  -0.00839036  1
  Cr  Cr10  1  0.49239200  0.15758349  0.15841282  1
  Cr  Cr11  1  0.32473375  -0.00819153  0.32576907  1
  Cr  Cr12  1  0.32593908  0.32581551  0.99059822  1
  Cr  Cr13  1  0.49159418  0.49166857  0.15812067  1
  Cr  Cr14  1  0.32383862  0.32495902  0.32500085  1
  Cr  Cr15  1  0.32604164  0.65702720  0.99012386  1
  Cr  Cr16  1  0.49315619  0.82551979  0.15838331  1
  Cr  Cr17  1  0.32373813  0.65786293  0.32551615  1
  Ni  Ni18  1  0.66205857  0.99021367  -0.00705083  1
  Cr  Cr19  1  0.82483637  0.15655729  0.15628337  1
  Cr  Cr20  1  0.65950999  0.99055798  0.32425660  1
  Cr  Cr21  1  0.65700015  0.32474668  0.99016273  1
  Cr  Cr22  1  0.82493023  0.49267858  0.15897934  1
  Cr  Cr23  1  0.65848365  0.32427214  0.32488841  1
  Cr  Cr24  1  0.65826084  0.65934982  0.99154430  1
  Ni  Ni25  1  0.82482690  0.82775889  0.15560050  1
  Cr  Cr26  1  0.65986491  0.65992919  0.32338102  1
  Cr  Cr27  1  0.15822464  0.15924509  0.49156039  1
  Cr  Cr28  1  0.99152247  -0.00843534  0.65835003  1
  Cr  Cr29  1  0.15651180  0.15669693  0.82638176  1
  Ni  Ni30  1  0.15869060  0.49154002  0.49154924  1
  Cr  Cr31  1  -0.00749868  0.32544473  0.65686846  1
  Cr  Cr32  1  0.15861603  0.49211389  0.82483471  1
  Cr  Cr33  1  0.15895516  0.82317452  0.49242401  1
  Cr  Cr34  1  -0.00784165  0.65766442  0.65684035  1
  Cr  Cr35  1  0.15716678  0.82591419  0.82560388  1
  Cr  Cr36  1  0.49200714  0.15798580  0.49073043  1
  Cr  Cr37  1  0.32487543  -0.00803505  0.65729806  1
  Cr  Cr38  1  0.49276469  0.15803013  0.82543865  1
  Cr  Cr39  1  0.49111366  0.49207266  0.49122171  1
  Cr  Cr40  1  0.32495590  0.32574236  0.65914477  1
  Ni  Ni41  1  0.49145334  0.49151047  0.82480624  1
  Cr  Cr42  1  0.49129402  0.82463351  0.49160117  1
  Cr  Cr43  1  0.32495773  0.65691741  0.65914835  1
  Cr  Cr44  1  0.49208683  0.82437856  0.82466195  1
  Cr  Cr45  1  0.82444034  0.15897981  0.49241280  1
  Cr  Cr46  1  0.65826565  -0.00843523  0.65752365  1
  Cr  Cr47  1  0.82534369  0.15686846  0.82604960  1
  Cr  Cr48  1  0.82598631  0.49133192  0.49160403  1
  Cr  Cr49  1  0.65728881  0.32540436  0.65958574  1
  Cr  Cr50  1  0.82384553  0.49142412  0.82412108  1
  Cr  Cr51  1  0.82443567  0.82435673  0.49188935  1
  Cr  Cr52  1  0.65763046  0.65770472  0.65964036  1
  Cr  Cr53  1  0.82534783  0.82636864  0.82640613  1
" 