8111,Ni92Fe7Cr0_4,-239.730316319199, 184.327522175639,Ni92Fe7Cr0,"# generated using pymatgen
 data_Cr2Fe3Ni49
_symmetry_space_group_name_H-M   'P 1'
_cell_length_a   7.45436177
_cell_length_b   7.45436177
_cell_length_c   10.54205951
_cell_angle_alpha   90.00000000
_cell_angle_beta   90.00000000
_cell_angle_gamma   90.00000000
_symmetry_Int_Tables_number   1
_chemical_formula_structural   Cr2Fe3Ni49
_chemical_formula_sum   'Cr2 Fe3 Ni49'
_cell_volume   585.79599057
_cell_formula_units_Z   1
loop_
 _symmetry_equiv_pos_site_id
 _symmetry_equiv_pos_as_xyz
  1  'x, y, z'
loop_
 _atom_site_type_symbol
 _atom_site_label
 _atom_site_symmetry_multiplicity
 _atom_site_fract_x
 _atom_site_fract_y
 _atom_site_fract_z
 _atom_site_occupancy
  Fe  Fe0  1  0.00143834  0.00090852  0.00201271  1
  Ni  Ni1  1  0.16771403  0.16703919  0.16676572  1
  Ni  Ni2  1  1.00062352  1.00082744  0.33351456  1
  Fe  Fe3  1  0.00093978  0.33532165  0.00106639  1
  Ni  Ni4  1  0.16764537  0.50121830  0.16743131  1
  Ni  Ni5  1  1.00082049  0.33416291  0.33370753  1
  Ni  Ni6  1  1.00013494  0.66657206  0.00169831  1
  Ni  Ni7  1  0.16763969  0.83429855  0.16755873  1
  Ni  Ni8  1  1.00079999  0.66756322  0.33418812  1
  Ni  Ni9  1  0.33355253  0.00202790  0.00176180  1
  Ni  Ni10  1  0.50001236  0.16829927  0.16837284  1
  Ni  Ni11  1  0.33422242  0.00108005  0.33374349  1
  Ni  Ni12  1  0.33410595  0.33396645  1.00070008  1
  Ni  Ni13  1  0.50082220  0.50070114  0.16701299  1
  Ni  Ni14  1  0.33402384  0.33390886  0.33393499  1
  Ni  Ni15  1  0.33400941  0.66656475  0.00170026  1
  Ni  Ni16  1  0.49956824  0.83355052  0.16788680  1
  Ni  Ni17  1  0.33379126  0.66756360  0.33368248  1
  Cr  Cr18  1  0.66710464  1.00070125  0.00086498  1
  Ni  Ni19  1  0.83482771  0.16829341  0.16850502  1
  Ni  Ni20  1  0.66770767  0.00105951  0.33412235  1
  Ni  Ni21  1  0.66731590  0.33549421  0.00088218  1
  Ni  Ni22  1  0.83408494  0.50077835  0.16712756  1
  Ni  Ni23  1  0.66770822  0.33373234  0.33374243  1
  Ni  Ni24  1  0.66841053  0.66601728  1.00059314  1
  Ni  Ni25  1  0.83534627  0.83348315  0.16799521  1
  Ni  Ni26  1  0.66796108  0.66776093  0.33348952  1
  Ni  Ni27  1  0.16750204  0.16727467  0.50154878  1
  Ni  Ni28  1  0.99968881  0.00154817  0.66727255  1
  Fe  Fe29  1  0.16807144  0.16922098  0.83369221  1
  Ni  Ni30  1  0.16751513  0.50111036  0.50106768  1
  Ni  Ni31  1  0.00094385  0.33426921  0.66814254  1
  Ni  Ni32  1  0.16763943  0.49985385  0.83405970  1
  Ni  Ni33  1  0.16751510  0.83416951  0.50068931  1
  Ni  Ni34  1  0.99995124  0.66674199  0.66666587  1
  Cr  Cr35  1  0.16790178  0.83353883  0.83400219  1
  Ni  Ni36  1  0.50083648  0.16747158  0.50087538  1
  Ni  Ni37  1  0.33515774  0.00179999  0.66703976  1
  Ni  Ni38  1  0.50080897  0.16847516  0.83330725  1
  Ni  Ni39  1  0.50059120  0.50067989  0.50112766  1
  Ni  Ni40  1  0.33390291  0.33401897  0.66791107  1
  Ni  Ni41  1  0.50077725  0.50029829  0.83441142  1
  Ni  Ni42  1  0.50039377  0.83440082  0.50132082  1
  Ni  Ni43  1  0.33464237  0.66673804  0.66716600  1
  Ni  Ni44  1  0.50131841  0.83378031  0.83334925  1
  Ni  Ni45  1  0.83421468  0.16747144  0.50087573  1
  Ni  Ni46  1  0.66770902  1.00080872  0.66779423  1
  Ni  Ni47  1  0.83403931  0.16847428  0.83317830  1
  Ni  Ni48  1  0.83444661  0.50066692  0.50112783  1
  Ni  Ni49  1  0.66770826  0.33375369  0.66792703  1
  Ni  Ni50  1  0.83413551  0.50037068  0.83430221  1
  Ni  Ni51  1  0.83464364  0.83441396  0.50132040  1
  Ni  Ni52  1  0.66796079  0.66799150  0.66847069  1
  Ni  Ni53  1  0.83360157  0.83371199  0.83324128  1
" 