8098,Ni92Fe5Cr2_15,-238.532498222372, 179.288705982612,Ni92Fe5Cr2,"# generated using pymatgen
 data_Cr3Fe2Ni49
_symmetry_space_group_name_H-M   'P 1'
_cell_length_a   7.45515653
_cell_length_b   7.45515653
_cell_length_c   10.54318347
_cell_angle_alpha   90.00000000
_cell_angle_beta   90.00000000
_cell_angle_gamma   90.00000000
_symmetry_Int_Tables_number   1
_chemical_formula_structural   Cr3Fe2Ni49
_chemical_formula_sum   'Cr3 Fe2 Ni49'
_cell_volume   585.98337703
_cell_formula_units_Z   1
loop_
 _symmetry_equiv_pos_site_id
 _symmetry_equiv_pos_as_xyz
  1  'x, y, z'
loop_
 _atom_site_type_symbol
 _atom_site_label
 _atom_site_symmetry_multiplicity
 _atom_site_fract_x
 _atom_site_fract_y
 _atom_site_fract_z
 _atom_site_occupancy
  Ni  Ni0  1  1.00023263  1.00005197  0.00148268  1
  Ni  Ni1  1  0.16619385  0.16829942  0.16757604  1
  Ni  Ni2  1  0.00102397  1.00075933  0.33386745  1
  Ni  Ni3  1  1.00068615  0.33425977  0.00198753  1
  Ni  Ni4  1  0.16742375  0.50096165  0.16708970  1
  Ni  Ni5  1  0.00084799  0.33408701  0.33452746  1
  Ni  Ni6  1  0.99971542  0.66807488  0.00148009  1
  Ni  Ni7  1  0.16663773  0.83313173  0.16800666  1
  Ni  Ni8  1  0.00082280  0.66754645  0.33405344  1
  Cr  Cr9  1  0.33377470  0.00136372  1.00044197  1
  Ni  Ni10  1  0.50201573  0.16810180  0.16776294  1
  Ni  Ni11  1  0.33390381  0.00103121  0.33448751  1
  Ni  Ni12  1  0.33497396  0.33479339  0.00137425  1
  Ni  Ni13  1  0.50060174  0.50097782  0.16671698  1
  Ni  Ni14  1  0.33415986  0.33389514  0.33386737  1
  Ni  Ni15  1  0.33472688  0.66633399  0.00141215  1
  Ni  Ni16  1  0.50158800  0.83331325  0.16819352  1
  Ni  Ni17  1  0.33391324  0.66746563  0.33411475  1
  Ni  Ni18  1  0.66847940  1.00029605  0.00147853  1
  Ni  Ni19  1  0.83418419  0.16731432  0.16733466  1
  Ni  Ni20  1  0.66746510  0.00100596  0.33411458  1
  Ni  Ni21  1  0.66673413  0.33530301  0.00141683  1
  Ni  Ni22  1  0.83436670  0.50053272  0.16701501  1
  Ni  Ni23  1  0.66738452  0.33409647  0.33405359  1
  Ni  Ni24  1  0.66795019  0.66678626  1.00019623  1
  Ni  Ni25  1  0.83416788  0.83454432  0.16648868  1
  Ni  Ni26  1  0.66765624  0.66729050  0.33430001  1
  Ni  Ni27  1  0.16711573  0.16737762  0.50140303  1
  Ni  Ni28  1  0.00216962  0.99944515  0.66703397  1
  Ni  Ni29  1  0.16801618  0.16602313  0.83341848  1
  Ni  Ni30  1  0.16730803  0.50106701  0.50084341  1
  Fe  Fe31  1  1.00073749  0.33414586  0.66575726  1
  Cr  Cr32  1  0.16753324  0.50119210  0.83450072  1
  Ni  Ni33  1  0.16747020  0.83394913  0.50103555  1
  Ni  Ni34  1  0.99989680  0.66886270  0.66685076  1
  Ni  Ni35  1  0.16744258  0.83488900  0.83335349  1
  Ni  Ni36  1  0.50119641  0.16726803  0.50128060  1
  Ni  Ni37  1  0.33345903  0.00149172  0.66777489  1
  Ni  Ni38  1  0.50047981  0.16767993  0.83335214  1
  Ni  Ni39  1  0.50082359  0.50099407  0.50128043  1
  Ni  Ni40  1  0.33558443  0.33285787  0.66714738  1
  Ni  Ni41  1  0.50258014  0.50139005  0.83439195  1
  Ni  Ni42  1  0.50077023  0.83413085  0.50089510  1
  Ni  Ni43  1  0.33450008  0.66803880  0.66686630  1
  Ni  Ni44  1  0.50097053  0.83331769  0.83330926  1
  Ni  Ni45  1  0.83407830  0.16742876  0.50059862  1
  Ni  Ni46  1  0.66676577  1.00052845  0.66679512  1
  Cr  Cr47  1  0.83399746  0.16780020  0.83450188  1
  Ni  Ni48  1  0.83425988  0.50063996  0.50115531  1
  Ni  Ni49  1  0.66594176  0.33512669  0.66691825  1
  Ni  Ni50  1  0.83232315  0.50197429  0.83422459  1
  Ni  Ni51  1  0.83415158  0.83432181  0.50150927  1
  Ni  Ni52  1  0.66799318  0.66673454  0.66789140  1
  Fe  Fe53  1  0.83386964  0.83277220  0.83413560  1
" 