7602,Ni92Fe5Cr2_13,-238.625409472704, 179.066237674775,Ni92Fe5Cr2,"# generated using pymatgen
 data_Cr3Fe2Ni49
_symmetry_space_group_name_H-M   'P 1'
_cell_length_a   7.45566997
_cell_length_b   7.45566997
_cell_length_c   10.54390958
_cell_angle_alpha   90.00000000
_cell_angle_beta   90.00000000
_cell_angle_gamma   90.00000000
_symmetry_Int_Tables_number   1
_chemical_formula_structural   Cr3Fe2Ni49
_chemical_formula_sum   'Cr3 Fe2 Ni49'
_cell_volume   586.10445669
_cell_formula_units_Z   1
loop_
 _symmetry_equiv_pos_site_id
 _symmetry_equiv_pos_as_xyz
  1  'x, y, z'
loop_
 _atom_site_type_symbol
 _atom_site_label
 _atom_site_symmetry_multiplicity
 _atom_site_fract_x
 _atom_site_fract_y
 _atom_site_fract_z
 _atom_site_occupancy
  Ni  Ni0  1  0.99983508  0.99982369  0.00125015  1
  Ni  Ni1  1  0.16748563  0.16777392  0.16774474  1
  Ni  Ni2  1  0.99983254  0.00166501  0.33337258  1
  Ni  Ni3  1  1.00015637  0.33468429  0.00132098  1
  Ni  Ni4  1  0.16747848  0.50017755  0.16737512  1
  Ni  Ni5  1  0.00119237  0.33388047  0.33457631  1
  Ni  Ni6  1  0.00111368  0.66778034  0.99997205  1
  Fe  Fe7  1  0.16748538  0.83415204  0.16701044  1
  Ni  Ni8  1  1.00007603  0.66674270  0.33361296  1
  Ni  Ni9  1  0.33419476  0.00086143  0.00182481  1
  Ni  Ni10  1  0.50003714  0.16670380  0.16700753  1
  Ni  Ni11  1  0.33500094  0.00166761  0.33383692  1
  Ni  Ni12  1  0.33515386  0.33492531  0.00132373  1
  Ni  Ni13  1  0.50022646  0.50143315  0.16719149  1
  Ni  Ni14  1  0.33388676  0.33412266  0.33433502  1
  Ni  Ni15  1  0.33315702  0.66650175  0.00125015  1
  Ni  Ni16  1  0.50110726  0.83415230  0.16774474  1
  Ni  Ni17  1  0.33499834  0.66649920  0.33337258  1
  Ni  Ni18  1  0.66825864  0.00182053  0.00132373  1
  Ni  Ni19  1  0.83476649  0.16689313  0.16719149  1
  Ni  Ni20  1  0.66745600  1.00055343  0.33433502  1
  Ni  Ni21  1  0.66697861  0.33364528  1.00007940  1
  Ni  Ni22  1  0.83458431  0.50125098  0.16737525  1
  Ni  Ni23  1  0.66721001  0.33387667  0.33430512  1
  Ni  Ni24  1  0.66801762  0.66682303  0.00132098  1
  Ni  Ni25  1  0.83351088  0.83414514  0.16737512  1
  Ni  Ni26  1  0.66721381  0.66785904  0.33457631  1
  Ni  Ni27  1  0.16738613  0.16920376  0.50061617  1
  Ni  Ni28  1  0.99853171  1.00052354  0.66766757  1
  Cr  Cr29  1  0.16729862  0.16756915  0.83384717  1
  Ni  Ni30  1  0.16745892  0.49885143  0.50105332  1
  Ni  Ni31  1  1.00062915  0.33446297  0.66639111  1
  Ni  Ni32  1  0.16727782  0.50254596  0.83385882  1
  Cr  Cr33  1  0.16746431  0.83413098  0.50075041  1
  Ni  Ni34  1  1.00063635  0.66730302  0.66870604  1
  Ni  Ni35  1  0.16562788  0.83229455  0.83476293  1
  Ni  Ni36  1  0.50053892  0.16720559  0.50092967  1
  Fe  Fe37  1  0.33496654  0.00163321  0.66655964  1
  Ni  Ni38  1  0.50229852  0.16896519  0.83435257  1
  Ni  Ni39  1  0.50064918  0.50103103  0.50081291  1
  Ni  Ni40  1  0.33490368  0.33552662  0.66662820  1
  Ni  Ni41  1  0.50064818  0.49945707  0.83428411  1
  Ni  Ni42  1  0.50253709  0.83405280  0.50061617  1
  Ni  Ni43  1  0.33385687  0.66519838  0.66766757  1
  Cr  Cr44  1  0.50090249  0.83396528  0.83384717  1
  Ni  Ni45  1  0.83436436  0.16731584  0.50081291  1
  Ni  Ni46  1  0.66885995  0.00157034  0.66662820  1
  Ni  Ni47  1  0.83279041  0.16731485  0.83428411  1
  Ni  Ni48  1  0.83418112  0.50084778  0.50066313  1
  Ni  Ni49  1  0.66675700  0.33342367  0.66790462  1
  Ni  Ni50  1  0.83436301  0.50102968  0.83425061  1
  Ni  Ni51  1  0.83218476  0.83412559  0.50105332  1
  Ni  Ni52  1  0.66779630  0.66729582  0.66639111  1
  Ni  Ni53  1  0.83587930  0.83394448  0.83385882  1
" 