7504,Ni92Fe5Cr2_11,-238.57306660108, 178.081850779017,Ni92Fe5Cr2,"# generated using pymatgen
 data_Cr3Fe2Ni49
_symmetry_space_group_name_H-M   'P 1'
_cell_length_a   7.45614391
_cell_length_b   7.45614391
_cell_length_c   10.54457985
_cell_angle_alpha   90.00000000
_cell_angle_beta   90.00000000
_cell_angle_gamma   90.00000000
_symmetry_Int_Tables_number   1
_chemical_formula_structural   Cr3Fe2Ni49
_chemical_formula_sum   'Cr3 Fe2 Ni49'
_cell_volume   586.21623722
_cell_formula_units_Z   1
loop_
 _symmetry_equiv_pos_site_id
 _symmetry_equiv_pos_as_xyz
  1  'x, y, z'
loop_
 _atom_site_type_symbol
 _atom_site_label
 _atom_site_symmetry_multiplicity
 _atom_site_fract_x
 _atom_site_fract_y
 _atom_site_fract_z
 _atom_site_occupancy
  Fe  Fe0  1  0.99986947  0.00164682  0.99991608  1
  Ni  Ni1  1  0.16578650  0.16943406  0.16773126  1
  Ni  Ni2  1  1.00027551  0.00142177  0.33440218  1
  Ni  Ni3  1  0.00094792  0.33467291  0.00122543  1
  Ni  Ni4  1  0.16729310  0.49893159  0.16765879  1
  Ni  Ni5  1  0.00288737  0.33406971  0.33382995  1
  Ni  Ni6  1  0.99985350  0.66591572  1.00001107  1
  Cr  Cr7  1  0.16760534  0.83392743  0.16755978  1
  Ni  Ni8  1  1.00003510  0.66670297  0.33486107  1
  Ni  Ni9  1  0.33474435  0.00080882  0.99921111  1
  Cr  Cr10  1  0.49988110  0.16674945  0.16679150  1
  Ni  Ni11  1  0.33395693  1.00062543  0.33566240  1
  Ni  Ni12  1  0.33282523  0.33440534  1.00042857  1
  Ni  Ni13  1  0.50005396  0.50311322  0.16658990  1
  Ni  Ni14  1  0.33110656  0.33462761  0.33438867  1
  Ni  Ni15  1  0.33471597  0.66698141  0.99978570  1
  Ni  Ni16  1  0.50266353  0.83233282  0.16765857  1
  Ni  Ni17  1  0.33475558  0.66694148  0.33484887  1
  Ni  Ni18  1  0.66735513  0.99971317  1.00018962  1
  Ni  Ni19  1  0.83634329  0.16682289  0.16669414  1
  Ni  Ni20  1  0.66796079  0.99777364  0.33486656  1
  Ni  Ni21  1  0.66841993  0.33464550  0.99958512  1
  Ni  Ni22  1  0.83484548  0.50153215  0.16662280  1
  Cr  Cr23  1  0.66821438  0.33488138  0.33488379  1
  Ni  Ni24  1  0.66762378  0.66783548  0.00146426  1
  Ni  Ni25  1  0.83216029  0.83383685  0.16773210  1
  Ni  Ni26  1  0.66740263  0.66955394  0.33335184  1
  Ni  Ni27  1  0.16760556  0.16739502  0.49999493  1
  Ni  Ni28  1  0.00111504  1.00035057  0.66778239  1
  Ni  Ni29  1  0.16770798  0.16726587  0.83446779  1
  Ni  Ni30  1  0.16734954  0.50057634  0.50010232  1
  Ni  Ni31  1  0.00093623  0.33452230  0.66713748  1
  Ni  Ni32  1  0.16737069  0.50080970  0.83443067  1
  Ni  Ni33  1  0.16734453  0.83422150  0.50070770  1
  Ni  Ni34  1  1.00004710  0.66732130  0.66732093  1
  Ni  Ni35  1  0.16744785  0.83411802  0.83399016  1
  Ni  Ni36  1  0.49989874  0.16654622  0.50158221  1
  Ni  Ni37  1  0.33414175  0.00141592  0.66732072  1
  Ni  Ni38  1  0.50070078  0.16736830  0.83398841  1
  Ni  Ni39  1  0.49997841  0.50125059  0.50113919  1
  Ni  Ni40  1  0.33408022  0.33321432  0.66737715  1
  Ni  Ni41  1  0.50078098  0.50044788  0.83446395  1
  Ni  Ni42  1  0.50083414  0.83439791  0.49991914  1
  Fe  Fe43  1  0.33406372  0.66740170  0.66740314  1
  Ni  Ni44  1  0.50060109  0.83437712  0.83461406  1
  Ni  Ni45  1  0.83468989  0.16653922  0.50124715  1
  Ni  Ni46  1  0.66693649  1.00052641  0.66713773  1
  Ni  Ni47  1  0.83378399  0.16744496  0.83425171  1
  Ni  Ni48  1  0.83486386  0.50151131  0.50139650  1
  Ni  Ni49  1  0.66717687  0.33428466  0.66774523  1
  Ni  Ni50  1  0.83404220  0.50070994  0.83417359  1
  Ni  Ni51  1  0.83401538  0.83414183  0.50017795  1
  Ni  Ni52  1  0.66824443  0.66738241  0.66737692  1
  Ni  Ni53  1  0.83414403  0.83403928  0.83428396  1
" 