7451,Ni92Fe5Cr2_8,-238.485908136264, 177.767729092295,Ni92Fe5Cr2,"# generated using pymatgen
 data_Cr3Fe2Ni49
_symmetry_space_group_name_H-M   'P 1'
_cell_length_a   7.45691720
_cell_length_b   7.45691720
_cell_length_c   10.54567344
_cell_angle_alpha   90.00000000
_cell_angle_beta   90.00000000
_cell_angle_gamma   90.00000000
_symmetry_Int_Tables_number   1
_chemical_formula_structural   Cr3Fe2Ni49
_chemical_formula_sum   'Cr3 Fe2 Ni49'
_cell_volume   586.39864866
_cell_formula_units_Z   1
loop_
 _symmetry_equiv_pos_site_id
 _symmetry_equiv_pos_as_xyz
  1  'x, y, z'
loop_
 _atom_site_type_symbol
 _atom_site_label
 _atom_site_symmetry_multiplicity
 _atom_site_fract_x
 _atom_site_fract_y
 _atom_site_fract_z
 _atom_site_occupancy
  Ni  Ni0  1  0.99940464  0.00195159  0.00151290  1
  Ni  Ni1  1  0.16699877  0.16693688  0.16755974  1
  Ni  Ni2  1  0.00069605  0.00288837  0.33425749  1
  Ni  Ni3  1  0.00108708  0.33393352  0.00074115  1
  Ni  Ni4  1  0.16816397  0.50014820  0.16667760  1
  Ni  Ni5  1  0.00107322  0.33228167  0.33390619  1
  Ni  Ni6  1  0.99920473  0.66616893  0.00133587  1
  Ni  Ni7  1  0.16843746  0.83494857  0.16681726  1
  Cr  Cr8  1  0.00203154  0.66699321  0.33412036  1
  Ni  Ni9  1  0.33532259  0.00238505  0.00129647  1
  Ni  Ni10  1  0.50127945  0.16733540  0.16779694  1
  Ni  Ni11  1  0.33428108  0.00130385  0.33424565  1
  Ni  Ni12  1  0.33384484  0.33374171  1.00049344  1
  Ni  Ni13  1  0.50010951  0.49972239  0.16692008  1
  Ni  Ni14  1  0.33380454  0.33366340  0.33418354  1
  Ni  Ni15  1  0.33534742  0.66591957  0.00180463  1
  Ni  Ni16  1  0.49939874  0.83497272  0.16636101  1
  Ni  Ni17  1  0.33428312  0.66708538  0.33426365  1
  Ni  Ni18  1  0.66732226  1.00047924  0.00073665  1
  Ni  Ni19  1  0.83376271  0.16765334  0.16770268  1
  Ni  Ni20  1  0.66702672  0.00247209  0.33386159  1
  Ni  Ni21  1  0.66710321  0.33392818  1.00029592  1
  Ni  Ni22  1  0.83377006  0.49825514  0.16545529  1
  Ni  Ni23  1  0.66715743  0.33231936  0.33459456  1
  Ni  Ni24  1  0.66749965  0.66763199  1.00053345  1
  Ni  Ni25  1  0.83420807  0.83619792  0.16585323  1
  Cr  Cr26  1  0.66580507  0.66765210  0.33351524  1
  Ni  Ni27  1  0.16675618  0.16675999  0.50069454  1
  Ni  Ni28  1  0.99933285  0.00236337  0.66626237  1
  Ni  Ni29  1  0.16695908  0.16872320  0.83378683  1
  Ni  Ni30  1  0.16780097  0.50040053  0.50152905  1
  Ni  Ni31  1  0.00173666  0.33398734  0.66740136  1
  Ni  Ni32  1  0.16711185  0.49942492  0.83379267  1
  Ni  Ni33  1  0.16915142  0.83492550  0.50139206  1
  Ni  Ni34  1  0.99914127  0.66577655  0.66643498  1
  Cr  Cr35  1  0.16774611  0.83389428  0.83416150  1
  Ni  Ni36  1  0.50134864  0.16685357  0.50050224  1
  Ni  Ni37  1  0.33552823  0.00255055  0.66656153  1
  Ni  Ni38  1  0.50112926  0.16714274  0.83378163  1
  Ni  Ni39  1  0.50033417  0.50026585  0.50134286  1
  Ni  Ni40  1  0.33311624  0.33374486  0.66734425  1
  Ni  Ni41  1  0.50100543  0.50097409  0.83375591  1
  Ni  Ni42  1  0.49865972  0.83490276  0.50153872  1
  Ni  Ni43  1  0.33553976  0.66576050  0.66605673  1
  Ni  Ni44  1  0.50224332  0.83389661  0.83417551  1
  Ni  Ni45  1  0.83397155  0.16818848  0.50026082  1
  Ni  Ni46  1  0.66711443  0.99987912  0.66736830  1
  Ni  Ni47  1  0.83395814  0.16750622  0.83417311  1
  Ni  Ni48  1  0.83389714  0.49758279  0.50253872  1
  Fe  Fe49  1  0.66718038  0.33364478  0.66741079  1
  Ni  Ni50  1  0.83392906  0.50048980  0.83411603  1
  Fe  Fe51  1  0.83383520  0.83591946  0.50239320  1
  Ni  Ni52  1  0.66729941  0.66810330  0.66757848  1
  Ni  Ni53  1  0.83242975  0.83404924  0.83348343  1
" 