8137,Ni92Fe4Cr2_17,-239.419999985394, 181.180957785651,Ni92Fe4Cr2,"# generated using pymatgen
 data_CrFeNi25
_symmetry_space_group_name_H-M   'P 1'
_cell_length_a   7.45624326
_cell_length_b   7.45624326
_cell_length_c   10.54472035
_cell_angle_alpha   90.00000000
_cell_angle_beta   90.00000000
_cell_angle_gamma   90.00000000
_symmetry_Int_Tables_number   1
_chemical_formula_structural   CrFeNi25
_chemical_formula_sum   'Cr2 Fe2 Ni50'
_cell_volume   586.23967091
_cell_formula_units_Z   2
loop_
 _symmetry_equiv_pos_site_id
 _symmetry_equiv_pos_as_xyz
  1  'x, y, z'
loop_
 _atom_site_type_symbol
 _atom_site_label
 _atom_site_symmetry_multiplicity
 _atom_site_fract_x
 _atom_site_fract_y
 _atom_site_fract_z
 _atom_site_occupancy
  Ni  Ni0  1  0.00131962  1.00057050  0.00116767  1
  Ni  Ni1  1  0.16709093  0.16716330  0.16794174  1
  Ni  Ni2  1  0.00089746  0.00238716  0.33383939  1
  Ni  Ni3  1  1.00031153  0.33352713  1.00072397  1
  Ni  Ni4  1  0.16805624  0.49991007  0.16651848  1
  Ni  Ni5  1  1.00048244  0.33219444  0.33391856  1
  Ni  Ni6  1  1.00007236  0.66807053  1.00029058  1
  Ni  Ni7  1  0.16845391  0.83505482  0.16655378  1
  Cr  Cr8  1  0.00073658  0.66737639  0.33389132  1
  Ni  Ni9  1  0.33331000  0.00099065  1.00048384  1
  Ni  Ni10  1  0.50085827  0.16710973  0.16770325  1
  Ni  Ni11  1  0.33407901  0.00091130  0.33424148  1
  Ni  Ni12  1  0.33488238  0.33352360  0.00072660  1
  Ni  Ni13  1  0.50096731  0.50104770  0.16794502  1
  Ni  Ni14  1  0.33463403  0.33378061  0.33397639  1
  Ni  Ni15  1  0.33471079  0.66766582  0.00095675  1
  Ni  Ni16  1  0.50051623  0.83400150  0.16757546  1
  Ni  Ni17  1  0.33596226  0.66748583  0.33366884  1
  Fe  Fe18  1  0.66711935  0.00082864  1.00068746  1
  Ni  Ni19  1  0.83422203  0.16757202  0.16756465  1
  Ni  Ni20  1  0.66716046  0.00097589  0.33358823  1
  Ni  Ni21  1  0.66698593  0.33485530  1.00071712  1
  Ni  Ni22  1  0.83318819  0.49966295  0.16653637  1
  Ni  Ni23  1  0.66704929  0.33410123  0.33400433  1
  Ni  Ni24  1  0.66740429  0.66660662  0.00095382  1
  Ni  Ni25  1  0.83308766  0.83499576  0.16717372  1
  Ni  Ni26  1  0.66559106  0.66709806  0.33405483  1
  Ni  Ni27  1  0.16780757  0.16802437  0.49960790  1
  Cr  Cr28  1  0.00130790  0.00093107  0.66698928  1
  Ni  Ni29  1  0.16802926  0.16821382  0.83460742  1
  Ni  Ni30  1  0.16778701  0.50022478  0.50182729  1
  Ni  Ni31  1  1.00048563  0.33541651  0.66753406  1
  Ni  Ni32  1  0.16706843  0.50096267  0.83381269  1
  Ni  Ni33  1  0.17038234  0.83391309  0.50069837  1
  Ni  Ni34  1  1.00057594  0.66596055  0.66796591  1
  Ni  Ni35  1  0.16844882  0.83301540  0.83489976  1
  Ni  Ni36  1  0.50136215  0.16666056  0.50096504  1
  Ni  Ni37  1  0.33567179  0.00088097  0.66741934  1
  Ni  Ni38  1  0.50088007  0.16713763  0.83353821  1
  Ni  Ni39  1  0.50113117  0.50132694  0.50048700  1
  Ni  Ni40  1  0.33462348  0.33383924  0.66746754  1
  Ni  Ni41  1  0.50096055  0.50111328  0.83374083  1
  Ni  Ni42  1  0.50003011  0.83418414  0.50072678  1
  Ni  Ni43  1  0.33438808  0.66745338  0.66755246  1
  Ni  Ni44  1  0.50054289  0.83391950  0.83391314  1
  Ni  Ni45  1  0.83298453  0.16915590  0.49963234  1
  Ni  Ni46  1  0.66562314  0.00095045  0.66808790  1
  Ni  Ni47  1  0.83322887  0.16849735  0.83497904  1
  Ni  Ni48  1  0.83323124  0.49883733  0.50181391  1
  Ni  Ni49  1  0.66704724  0.33415244  0.66744210  1
  Ni  Ni50  1  0.83414326  0.50063475  0.83385653  1
  Fe  Fe51  1  0.83198779  0.83414096  0.50071276  1
  Ni  Ni52  1  0.66716522  0.66707434  0.66716036  1
  Ni  Ni53  1  0.83307985  0.83303495  0.83428229  1
" 