7311,Ni92Fe7Cr0_12,-239.733813771151, 183.815721583797,Ni92Fe7Cr0,"# generated using pymatgen
 data_Cr2Fe3Ni49
_symmetry_space_group_name_H-M   'P 1'
_cell_length_a   7.45142145
_cell_length_b   7.45142145
_cell_length_c   10.53790128
_cell_angle_alpha   90.00000000
_cell_angle_beta   90.00000000
_cell_angle_gamma   90.00000000
_symmetry_Int_Tables_number   1
_chemical_formula_structural   Cr2Fe3Ni49
_chemical_formula_sum   'Cr2 Fe3 Ni49'
_cell_volume   585.10307593
_cell_formula_units_Z   1
loop_
 _symmetry_equiv_pos_site_id
 _symmetry_equiv_pos_as_xyz
  1  'x, y, z'
loop_
 _atom_site_type_symbol
 _atom_site_label
 _atom_site_symmetry_multiplicity
 _atom_site_fract_x
 _atom_site_fract_y
 _atom_site_fract_z
 _atom_site_occupancy
  Ni  Ni0  1  1.00091134  0.99957621  0.00110033  1
  Ni  Ni1  1  0.16836283  0.16679059  0.16833275  1
  Ni  Ni2  1  0.00127446  1.00089279  0.33413396  1
  Cr  Cr3  1  0.00106719  0.33411443  1.00088736  1
  Ni  Ni4  1  0.16675356  0.50176764  0.16905023  1
  Ni  Ni5  1  1.00097308  0.33465144  0.33511720  1
  Ni  Ni6  1  0.00128951  0.66939408  0.00129379  1
  Ni  Ni7  1  0.16707336  0.83457886  0.16753040  1
  Ni  Ni8  1  1.00092544  0.66758263  0.33382264  1
  Ni  Ni9  1  0.33436890  1.00099092  1.00063873  1
  Ni  Ni10  1  0.50122974  0.16629815  0.16715517  1
  Ni  Ni11  1  0.33437174  0.00111426  0.33445747  1
  Ni  Ni12  1  0.33496869  0.33342357  1.00025588  1
  Cr  Cr13  1  0.50083253  0.50091758  0.16818769  1
  Ni  Ni14  1  0.33339292  0.33314093  0.33495168  1
  Ni  Ni15  1  0.33319009  0.66875890  0.99987452  1
  Ni  Ni16  1  0.50157661  0.83604945  0.16778336  1
  Ni  Ni17  1  0.33314554  0.66892182  0.33600955  1
  Ni  Ni18  1  0.66785629  0.00131653  1.00100282  1
  Ni  Ni19  1  0.83357902  0.16651110  0.16937713  1
  Ni  Ni20  1  0.66748365  1.00104030  0.33451076  1
  Ni  Ni21  1  0.66715472  0.33313805  1.00019797  1
  Ni  Ni22  1  0.83497751  0.50210640  0.16790484  1
  Ni  Ni23  1  0.66879895  0.33349746  0.33502632  1
  Ni  Ni24  1  0.66866768  0.66874728  0.99980881  1
  Ni  Ni25  1  0.83449704  0.83458146  0.16753233  1
  Ni  Ni26  1  0.66902724  0.66856635  0.33558696  1
  Ni  Ni27  1  0.16820909  0.16765081  0.50133666  1
  Ni  Ni28  1  0.00115427  1.00019556  0.66786724  1
  Ni  Ni29  1  0.16817506  0.16698253  0.83349916  1
  Ni  Ni30  1  0.16736261  0.50061775  0.50070510  1
  Fe  Fe31  1  0.00174577  0.33448158  0.66721947  1
  Ni  Ni32  1  0.16951270  0.50193204  0.83339405  1
  Ni  Ni33  1  0.16656155  0.83485194  0.50129748  1
  Ni  Ni34  1  0.00116126  0.66844788  0.66797266  1
  Ni  Ni35  1  0.16666688  0.83426750  0.83430977  1
  Ni  Ni36  1  0.50049500  0.16813504  0.50104592  1
  Ni  Ni37  1  0.33420182  0.00139812  0.66804468  1
  Ni  Ni38  1  0.50153251  0.16832920  0.83492895  1
  Ni  Ni39  1  0.50149427  0.50033948  0.50109439  1
  Ni  Ni40  1  0.33519095  0.33435716  0.66792488  1
  Ni  Ni41  1  0.50052280  0.50074447  0.83410198  1
  Ni  Ni42  1  0.50187006  0.83467475  0.50142511  1
  Ni  Ni43  1  0.33396429  0.66739003  0.66729984  1
  Ni  Ni44  1  0.50183967  0.83411734  0.83393957  1
  Fe  Fe45  1  0.83421613  0.16712971  0.50093706  1
  Ni  Ni46  1  0.66780905  0.00137398  0.66760406  1
  Ni  Ni47  1  0.83344325  0.16556378  0.83272791  1
  Ni  Ni48  1  0.83428572  0.50194061  0.50148945  1
  Ni  Ni49  1  0.66682075  0.33436132  0.66792529  1
  Fe  Fe50  1  0.83329233  0.50226715  0.83367653  1
  Ni  Ni51  1  0.83472381  0.83382837  0.50091088  1
  Ni  Ni52  1  0.66800315  0.66745342  0.66773536  1
  Ni  Ni53  1  0.83461648  0.83532018  0.83467680  1
" 