6350,Ni92Cr8_9,-202.715737800178, 185.579912643443,Ni92Cr8,"# generated using pymatgen
 data_Cr49Ni5
_symmetry_space_group_name_H-M   'P 1'
_cell_length_a   7.59705597
_cell_length_b   7.59705597
_cell_length_c   10.74385959
_cell_angle_alpha   90.00000000
_cell_angle_beta   90.00000000
_cell_angle_gamma   90.00000000
_symmetry_Int_Tables_number   1
_chemical_formula_structural   Cr49Ni5
_chemical_formula_sum   'Cr49 Ni5'
_cell_volume   620.08464308
_cell_formula_units_Z   1
loop_
 _symmetry_equiv_pos_site_id
 _symmetry_equiv_pos_as_xyz
  1  'x, y, z'
loop_
 _atom_site_type_symbol
 _atom_site_label
 _atom_site_symmetry_multiplicity
 _atom_site_fract_x
 _atom_site_fract_y
 _atom_site_fract_z
 _atom_site_occupancy
  Cr  Cr0  1  -0.00791087  0.99076530  0.99018229  1
  Cr  Cr1  1  0.15770197  0.15825313  0.15602466  1
  Cr  Cr2  1  0.99064044  0.99023834  0.32643471  1
  Ni  Ni3  1  -0.00821675  0.32443323  -0.00843982  1
  Cr  Cr4  1  0.15701625  0.48996877  0.15760737  1
  Cr  Cr5  1  -0.00808171  0.32526404  0.32512670  1
  Cr  Cr6  1  0.99099741  0.65801537  -0.00729712  1
  Cr  Cr7  1  0.15929918  0.82608866  0.15720578  1
  Cr  Cr8  1  -0.00808402  0.65879981  0.32389484  1
  Ni  Ni9  1  0.32462612  -0.00842191  -0.00844321  1
  Cr  Cr10  1  0.49148817  0.15598711  0.15854304  1
  Cr  Cr11  1  0.32525535  -0.00842277  0.32432308  1
  Cr  Cr12  1  0.32542355  0.32413036  -0.00816443  1
  Cr  Cr13  1  0.49143277  0.49162572  0.15848091  1
  Cr  Cr14  1  0.32546847  0.32526551  0.32560850  1
  Cr  Cr15  1  0.32512082  0.65922123  -0.00786799  1
  Cr  Cr16  1  0.49143130  0.82669422  0.15805720  1
  Cr  Cr17  1  0.32422966  0.65753909  0.32444626  1
  Cr  Cr18  1  0.65701846  0.99113006  -0.00853068  1
  Cr  Cr19  1  0.82514277  0.15816271  0.15856329  1
  Ni  Ni20  1  0.65790517  0.99121686  0.32479328  1
  Cr  Cr21  1  0.65822526  0.32522243  0.99101177  1
  Cr  Cr22  1  0.82597481  0.48991046  0.15672635  1
  Cr  Cr23  1  0.65695927  0.32398917  0.32476084  1
  Cr  Cr24  1  0.65818308  0.65800852  0.99136309  1
  Cr  Cr25  1  0.82350715  0.82614577  0.15981879  1
  Cr  Cr26  1  0.65821369  0.65860762  0.32368612  1
  Cr  Cr27  1  0.15792543  0.15827620  0.49146300  1
  Cr  Cr28  1  0.99142380  0.99119252  0.65770717  1
  Cr  Cr29  1  0.15795465  0.15852661  0.82704815  1
  Cr  Cr30  1  0.15894180  0.49243427  0.49209765  1
  Cr  Cr31  1  0.99144298  0.32383972  0.65817952  1
  Cr  Cr32  1  0.15803186  0.49120997  0.82481311  1
  Cr  Cr33  1  0.15987223  0.82363860  0.49248148  1
  Cr  Cr34  1  -0.00855303  0.65929076  0.65773375  1
  Cr  Cr35  1  0.16056842  0.82459210  0.82482937  1
  Cr  Cr36  1  0.49250573  0.15652952  0.48977313  1
  Cr  Cr37  1  0.32417189  0.99142272  0.65897360  1
  Cr  Cr38  1  0.49026966  0.15674229  0.82614566  1
  Cr  Cr39  1  0.49152777  0.49388265  0.49358416  1
  Cr  Cr40  1  0.32547749  0.32508385  0.65688099  1
  Cr  Cr41  1  0.49137705  0.49387184  0.82199895  1
  Cr  Cr42  1  0.49219764  0.82395306  0.49220348  1
  Ni  Ni43  1  0.32722769  0.65833941  0.65796097  1
  Cr  Cr44  1  0.49058157  0.82385745  0.82396273  1
  Cr  Cr45  1  0.82387954  0.15745908  0.49011485  1
  Cr  Cr46  1  0.65871278  0.99142595  0.65808805  1
  Cr  Cr47  1  0.82612601  0.15939456  0.82577965  1
  Cr  Cr48  1  0.82383793  0.49227677  0.49233141  1
  Cr  Cr49  1  0.65743211  0.32506140  0.65856124  1
  Cr  Cr50  1  0.82503008  0.49136259  0.82512300  1
  Cr  Cr51  1  0.82221548  0.82460803  0.49096021  1
  Ni  Ni52  1  0.65565635  0.65834773  0.65800195  1
  Cr  Cr53  1  0.82314651  0.82349077  0.82323635  1
" 