2986,Ni92Fe7Cr0_13,-239.702219496217, 183.456083142681,Ni92Fe7Cr0,"# generated using pymatgen
 data_Cr2Fe3Ni49
_symmetry_space_group_name_H-M   'P 1'
_cell_length_a   7.45302471
_cell_length_b   7.45302471
_cell_length_c   10.54016863
_cell_angle_alpha   90.00000000
_cell_angle_beta   90.00000000
_cell_angle_gamma   90.00000000
_symmetry_Int_Tables_number   1
_chemical_formula_structural   Cr2Fe3Ni49
_chemical_formula_sum   'Cr2 Fe3 Ni49'
_cell_volume   585.48083187
_cell_formula_units_Z   1
loop_
 _symmetry_equiv_pos_site_id
 _symmetry_equiv_pos_as_xyz
  1  'x, y, z'
loop_
 _atom_site_type_symbol
 _atom_site_label
 _atom_site_symmetry_multiplicity
 _atom_site_fract_x
 _atom_site_fract_y
 _atom_site_fract_z
 _atom_site_occupancy
  Ni  Ni0  1  1.00068893  0.00096195  1.00075897  1
  Ni  Ni1  1  0.16778472  0.16763774  0.16755529  1
  Cr  Cr2  1  1.00054965  0.00159687  0.33430096  1
  Ni  Ni3  1  0.99956252  0.33413127  0.00119461  1
  Ni  Ni4  1  0.16657539  0.50184269  0.16857302  1
  Ni  Ni5  1  1.00080814  0.33503052  0.33400654  1
  Ni  Ni6  1  1.00070806  0.66771663  0.00113217  1
  Ni  Ni7  1  0.16877197  0.83331871  0.16577794  1
  Fe  Fe8  1  1.00079342  0.66672158  0.33376933  1
  Ni  Ni9  1  0.33384554  0.99902799  0.00115832  1
  Ni  Ni10  1  0.50177077  0.16625144  0.16865254  1
  Ni  Ni11  1  0.33479920  0.99999586  0.33437048  1
  Cr  Cr12  1  0.33473680  0.33515698  0.00097670  1
  Ni  Ni13  1  0.50173473  0.50207885  0.16806858  1
  Ni  Ni14  1  0.33383301  0.33518835  0.33479201  1
  Ni  Ni15  1  0.33463282  0.66894933  1.00088650  1
  Ni  Ni16  1  0.50097577  0.83446968  0.16759709  1
  Ni  Ni17  1  0.33515044  0.66755382  0.33401529  1
  Ni  Ni18  1  0.66825468  1.00029917  0.00123948  1
  Ni  Ni19  1  0.83332257  0.16835371  0.16617737  1
  Ni  Ni20  1  0.66698407  1.00009975  0.33459707  1
  Ni  Ni21  1  0.66959366  0.33494711  1.00064941  1
  Ni  Ni22  1  0.83453474  0.50106205  0.16718594  1
  Ni  Ni23  1  0.66818871  0.33518721  0.33436534  1
  Ni  Ni24  1  0.66746525  0.66758065  0.00098950  1
  Ni  Ni25  1  0.83307353  0.83331219  0.16667496  1
  Ni  Ni26  1  0.66673429  0.66747378  0.33425846  1
  Ni  Ni27  1  0.16864082  0.16853928  0.50174243  1
  Ni  Ni28  1  1.00067885  0.00161619  0.66778577  1
  Ni  Ni29  1  0.16679309  0.16742994  0.83352135  1
  Ni  Ni30  1  0.16742144  0.50098285  0.50070699  1
  Ni  Ni31  1  1.00091980  0.33336812  0.66757627  1
  Ni  Ni32  1  0.16649485  0.50118141  0.83354352  1
  Ni  Ni33  1  0.16868432  0.83315315  0.50254869  1
  Fe  Fe34  1  1.00039281  0.66731083  0.66794615  1
  Fe  Fe35  1  0.16776756  0.83451547  0.83453672  1
  Ni  Ni36  1  0.50071590  0.16728989  0.50106510  1
  Ni  Ni37  1  0.33358376  1.00023530  0.66727228  1
  Ni  Ni38  1  0.50147828  0.16586948  0.83310101  1
  Ni  Ni39  1  0.50072552  0.50115084  0.50129813  1
  Ni  Ni40  1  0.33369120  0.33519846  0.66703730  1
  Ni  Ni41  1  0.50146784  0.50237411  0.83343946  1
  Ni  Ni42  1  0.50084899  0.83436635  0.50072045  1
  Ni  Ni43  1  0.33529054  0.66737966  0.66786773  1
  Ni  Ni44  1  0.50160499  0.83456445  0.83452167  1
  Ni  Ni45  1  0.83344064  0.16844485  0.50211716  1
  Ni  Ni46  1  0.66851622  1.00002823  0.66699978  1
  Ni  Ni47  1  0.83463737  0.16716469  0.83451998  1
  Ni  Ni48  1  0.83465886  0.50108372  0.50102484  1
  Ni  Ni49  1  0.66821026  0.33521200  0.66779813  1
  Ni  Ni50  1  0.83487164  0.50132049  0.83461607  1
  Ni  Ni51  1  0.83322801  0.83315653  0.50185471  1
  Ni  Ni52  1  0.66675148  0.66760411  0.66756626  1
  Ni  Ni53  1  0.83341220  0.83431429  0.83434881  1
" 