2472,Ni92Fe4Cr2_11,-239.416160343829, 180.308021973202,Ni92Fe4Cr2,"# generated using pymatgen
 data_CrFeNi25
_symmetry_space_group_name_H-M   'P 1'
_cell_length_a   7.45716702
_cell_length_b   7.45716702
_cell_length_c   10.54602673
_cell_angle_alpha   90.00000000
_cell_angle_beta   90.00000000
_cell_angle_gamma   90.00000000
_symmetry_Int_Tables_number   1
_chemical_formula_structural   CrFeNi25
_chemical_formula_sum   'Cr2 Fe2 Ni50'
_cell_volume   586.45758540
_cell_formula_units_Z   2
loop_
 _symmetry_equiv_pos_site_id
 _symmetry_equiv_pos_as_xyz
  1  'x, y, z'
loop_
 _atom_site_type_symbol
 _atom_site_label
 _atom_site_symmetry_multiplicity
 _atom_site_fract_x
 _atom_site_fract_y
 _atom_site_fract_z
 _atom_site_occupancy
  Ni  Ni0  1  0.00085377  0.99981044  0.00075551  1
  Ni  Ni1  1  0.16782667  0.16673945  0.16653588  1
  Ni  Ni2  1  1.00066014  0.99915924  0.33424840  1
  Fe  Fe3  1  0.00094828  0.33353804  0.99996937  1
  Ni  Ni4  1  0.16916090  0.50171392  0.16612481  1
  Cr  Cr5  1  0.99958849  0.33265078  0.33256367  1
  Ni  Ni6  1  0.00066282  0.66824759  0.00087025  1
  Ni  Ni7  1  0.16677450  0.83355841  0.16774081  1
  Ni  Ni8  1  0.99967318  0.66989957  0.33311366  1
  Ni  Ni9  1  0.33351479  0.00096276  0.00091479  1
  Ni  Ni10  1  0.50145881  0.16766155  0.16748117  1
  Ni  Ni11  1  0.33395267  0.00069656  0.33345006  1
  Ni  Ni12  1  0.33490107  0.33393449  0.00074020  1
  Ni  Ni13  1  0.49983650  0.50065866  0.16774596  1
  Ni  Ni14  1  0.33640863  0.33292552  0.33320583  1
  Ni  Ni15  1  0.33369144  0.66707695  1.00045385  1
  Ni  Ni16  1  0.50142350  0.83370461  0.16681516  1
  Ni  Ni17  1  0.33492246  0.66837163  0.33285741  1
  Ni  Ni18  1  0.66761532  0.00100072  1.00044961  1
  Ni  Ni19  1  0.83273527  0.16521695  0.16632621  1
  Ni  Ni20  1  0.66737316  0.00077010  0.33369842  1
  Ni  Ni21  1  0.66643006  0.33409363  0.00085508  1
  Fe  Fe22  1  0.83247822  0.50192164  0.16660610  1
  Ni  Ni23  1  0.66560924  0.33389887  0.33418693  1
  Ni  Ni24  1  0.66753761  0.66693616  1.00053884  1
  Ni  Ni25  1  0.83377640  0.83508463  0.16748406  1
  Ni  Ni26  1  0.66722950  0.66739593  0.33382608  1
  Ni  Ni27  1  0.16805711  0.16515554  0.50135003  1
  Ni  Ni28  1  0.00084523  1.00049602  0.66693138  1
  Ni  Ni29  1  0.16728413  0.16731735  0.83405514  1
  Cr  Cr30  1  0.16883433  0.50177421  0.50214611  1
  Ni  Ni31  1  0.99939096  0.33308078  0.66921984  1
  Ni  Ni32  1  0.16756875  0.50082258  0.83410039  1
  Ni  Ni33  1  0.16724480  0.83532550  0.50018636  1
  Ni  Ni34  1  0.99937884  0.66843990  0.66805042  1
  Ni  Ni35  1  0.16691680  0.83381260  0.83401756  1
  Ni  Ni36  1  0.50112631  0.16719918  0.50019173  1
  Ni  Ni37  1  0.33398274  1.00064425  0.66758965  1
  Ni  Ni38  1  0.50115265  0.16749360  0.83432083  1
  Ni  Ni39  1  0.50220596  0.50082769  0.50059832  1
  Ni  Ni40  1  0.33532519  0.33268161  0.66807813  1
  Ni  Ni41  1  0.50064040  0.50049204  0.83361667  1
  Ni  Ni42  1  0.50109453  0.83394459  0.50040456  1
  Ni  Ni43  1  0.33509320  0.66860643  0.66870026  1
  Ni  Ni44  1  0.50116050  0.83399835  0.83478640  1
  Ni  Ni45  1  0.83283327  0.16614988  0.50165458  1
  Ni  Ni46  1  0.66715346  0.00066682  0.66780960  1
  Ni  Ni47  1  0.83359343  0.16685239  0.83398554  1
  Ni  Ni48  1  0.83168734  0.50160849  0.50086862  1
  Ni  Ni49  1  0.66733563  0.33418589  0.66693874  1
  Ni  Ni50  1  0.83379347  0.50079853  0.83452932  1
  Ni  Ni51  1  0.83361488  0.83431909  0.50057894  1
  Ni  Ni52  1  0.66749332  0.66712553  0.66759028  1
  Ni  Ni53  1  0.83392382  0.83432679  0.83391692  1
" 