1512,Ni92Cr8_11,-202.836375306254, 186.799193329438,Ni92Cr8,"# generated using pymatgen
 data_Cr49Ni5
_symmetry_space_group_name_H-M   'P 1'
_cell_length_a   7.59438344
_cell_length_b   7.59438344
_cell_length_c   10.74008006
_cell_angle_alpha   90.00000000
_cell_angle_beta   90.00000000
_cell_angle_gamma   90.00000000
_symmetry_Int_Tables_number   1
_chemical_formula_structural   Cr49Ni5
_chemical_formula_sum   'Cr49 Ni5'
_cell_volume   619.43046393
_cell_formula_units_Z   1
loop_
 _symmetry_equiv_pos_site_id
 _symmetry_equiv_pos_as_xyz
  1  'x, y, z'
loop_
 _atom_site_type_symbol
 _atom_site_label
 _atom_site_symmetry_multiplicity
 _atom_site_fract_x
 _atom_site_fract_y
 _atom_site_fract_z
 _atom_site_occupancy
  Cr  Cr0  1  -0.00836709  -0.00639335  0.99161268  1
  Cr  Cr1  1  0.15831245  0.15763119  0.15943732  1
  Cr  Cr2  1  0.99053983  -0.00702064  0.32220557  1
  Cr  Cr3  1  0.99111526  0.32374414  -0.00836812  1
  Cr  Cr4  1  0.15958955  0.49324237  0.15859943  1
  Cr  Cr5  1  0.99119529  0.32441249  0.32354519  1
  Cr  Cr6  1  -0.00796494  0.65772012  -0.00837211  1
  Cr  Cr7  1  0.15904355  0.82390389  0.15717095  1
  Cr  Cr8  1  0.99068240  0.65759873  0.32472994  1
  Cr  Cr9  1  0.32436629  -0.00819583  0.99032730  1
  Cr  Cr10  1  0.49362803  0.15940926  0.15763399  1
  Cr  Cr11  1  0.32656193  0.99101938  0.32627746  1
  Cr  Cr12  1  0.32420839  0.32471928  0.99045904  1
  Cr  Cr13  1  0.49124634  0.49095849  0.15516169  1
  Cr  Cr14  1  0.32474914  0.32484228  0.32567143  1
  Ni  Ni15  1  0.32516581  0.65783111  0.99154547  1
  Cr  Cr16  1  0.49011681  0.82445557  0.15703715  1
  Cr  Cr17  1  0.32671367  0.65864975  0.32531320  1
  Cr  Cr18  1  0.65911808  -0.00734871  -0.00705813  1
  Ni  Ni19  1  0.82391693  0.15997509  0.15671572  1
  Cr  Cr20  1  0.65800653  0.99083355  0.32453751  1
  Ni  Ni21  1  0.65947927  0.32372904  -0.00704347  1
  Cr  Cr22  1  0.82377750  0.49037160  0.15760513  1
  Cr  Cr23  1  0.65908631  0.32473503  0.32282948  1
  Cr  Cr24  1  0.65766843  0.65765826  0.99125194  1
  Cr  Cr25  1  0.82563201  0.82648562  0.15806616  1
  Cr  Cr26  1  0.65735866  0.65932796  0.32723028  1
  Cr  Cr27  1  0.15809628  0.15784876  0.49197848  1
  Cr  Cr28  1  -0.00717249  -0.00693220  0.66109172  1
  Ni  Ni29  1  0.15820934  0.15869488  0.82498956  1
  Cr  Cr30  1  0.15792220  0.49175825  0.49069038  1
  Cr  Cr31  1  -0.00682957  0.32435564  0.65964485  1
  Cr  Cr32  1  0.15919824  0.49249734  0.82551862  1
  Cr  Cr33  1  0.15837449  0.82529940  0.49068893  1
  Cr  Cr34  1  0.99124019  0.65765494  0.65848357  1
  Cr  Cr35  1  0.15860515  0.82525509  0.82696957  1
  Cr  Cr36  1  0.49202612  0.15740550  0.49166850  1
  Cr  Cr37  1  0.32517001  -0.00798429  0.65871837  1
  Cr  Cr38  1  0.49189753  0.15935358  0.82571569  1
  Cr  Cr39  1  0.49155014  0.49064965  0.49164446  1
  Cr  Cr40  1  0.32348035  0.32401849  0.65915589  1
  Cr  Cr41  1  0.49202604  0.49080365  0.82798924  1
  Ni  Ni42  1  0.49118335  0.82484667  0.49163570  1
  Cr  Cr43  1  0.32648301  0.65872286  0.65750502  1
  Cr  Cr44  1  0.49097076  0.82452964  0.82606401  1
  Cr  Cr45  1  0.82474531  0.15824920  0.49126201  1
  Cr  Cr46  1  0.65673077  0.98981930  0.65688905  1
  Cr  Cr47  1  0.82381294  0.15870133  0.82551471  1
  Cr  Cr48  1  0.82531823  0.49087738  0.49259169  1
  Cr  Cr49  1  0.65791176  0.32549678  0.65891004  1
  Cr  Cr50  1  0.82351678  0.49096858  0.82472335  1
  Cr  Cr51  1  0.82549969  0.82576667  0.49262288  1
  Cr  Cr52  1  0.65713967  0.65928397  0.65639204  1
  Cr  Cr53  1  0.82523540  0.82505140  0.82410759  1
" 