4940,Ni92Cr8_4,-202.859321131771, 186.35647247336,Ni92Cr8,"# generated using pymatgen
 data_Cr49Ni5
_symmetry_space_group_name_H-M   'P 1'
_cell_length_a   7.59349593
_cell_length_b   7.59349593
_cell_length_c   10.73882493
_cell_angle_alpha   90.00000000
_cell_angle_beta   90.00000000
_cell_angle_gamma   90.00000000
_symmetry_Int_Tables_number   1
_chemical_formula_structural   Cr49Ni5
_chemical_formula_sum   'Cr49 Ni5'
_cell_volume   619.21332276
_cell_formula_units_Z   1
loop_
 _symmetry_equiv_pos_site_id
 _symmetry_equiv_pos_as_xyz
  1  'x, y, z'
loop_
 _atom_site_type_symbol
 _atom_site_label
 _atom_site_symmetry_multiplicity
 _atom_site_fract_x
 _atom_site_fract_y
 _atom_site_fract_z
 _atom_site_occupancy
  Cr  Cr0  1  0.98980487  0.99121145  -0.00797094  1
  Cr  Cr1  1  0.15942331  0.15750233  0.15875275  1
  Cr  Cr2  1  0.99119218  -0.00831883  0.32546671  1
  Cr  Cr3  1  0.99059901  0.32596579  0.99164545  1
  Cr  Cr4  1  0.15943440  0.49211044  0.15792819  1
  Cr  Cr5  1  0.99060000  0.32506611  0.32503353  1
  Cr  Cr6  1  -0.00809277  0.65783713  -0.00794893  1
  Cr  Cr7  1  0.15799754  0.82541417  0.15833674  1
  Cr  Cr8  1  0.99054129  0.65829376  0.32384164  1
  Cr  Cr9  1  0.32778868  0.98957788  0.99071741  1
  Cr  Cr10  1  0.49214712  0.15753861  0.15689105  1
  Cr  Cr11  1  0.32644723  0.99006207  0.32679931  1
  Cr  Cr12  1  0.32549591  0.32600376  -0.00795036  1
  Cr  Cr13  1  0.49252523  0.49248757  0.15974740  1
  Cr  Cr14  1  0.32549453  0.32514396  0.32462929  1
  Cr  Cr15  1  0.32583790  0.65943270  0.99064281  1
  Cr  Cr16  1  0.49366110  0.82499860  0.15834117  1
  Cr  Cr17  1  0.32715345  0.65990153  0.32522786  1
  Ni  Ni18  1  0.65690011  0.98987057  0.99035236  1
  Cr  Cr19  1  0.82349968  0.15613625  0.15697103  1
  Cr  Cr20  1  0.65728282  0.99010197  0.32556546  1
  Cr  Cr21  1  0.65890044  0.32371564  -0.00796927  1
  Cr  Cr22  1  0.82312461  0.49383670  0.15966582  1
  Cr  Cr23  1  0.65890020  0.32588644  0.32468603  1
  Cr  Cr24  1  0.65725704  0.65997218  0.99074468  1
  Cr  Cr25  1  0.82327565  0.82500461  0.15834064  1
  Ni  Ni26  1  0.65690770  0.65996809  0.32680743  1
  Cr  Cr27  1  0.15892007  0.15816918  0.49210265  1
  Cr  Cr28  1  0.99108213  0.99144450  0.65754417  1
  Cr  Cr29  1  0.15897595  0.15793081  0.82418905  1
  Cr  Cr30  1  0.15907156  0.49189611  0.49208324  1
  Cr  Cr31  1  0.99059578  0.32507418  0.65834313  1
  Cr  Cr32  1  0.15901527  0.49166336  0.82498752  1
  Cr  Cr33  1  0.15902799  0.82489307  0.49127969  1
  Cr  Cr34  1  0.99037160  0.65854748  0.65911035  1
  Cr  Cr35  1  0.15902817  0.82542889  0.82540509  1
  Cr  Cr36  1  0.49139674  0.15763441  0.49129938  1
  Cr  Cr37  1  0.32744402  0.98913776  0.65756192  1
  Cr  Cr38  1  0.49219399  0.15660985  0.82676731  1
  Cr  Cr39  1  0.49339252  0.49437139  0.49131856  1
  Cr  Cr40  1  0.32572256  0.32516138  0.65834319  1
  Cr  Cr41  1  0.49256914  0.49341688  0.82402100  1
  Ni  Ni42  1  0.49450630  0.82212224  0.49202859  1
  Cr  Cr43  1  0.32815752  0.66087515  0.65909284  1
  Ni  Ni44  1  0.49448429  0.82503608  0.82464491  1
  Cr  Cr45  1  0.82477174  0.15761294  0.49207729  1
  Cr  Cr46  1  0.65630786  0.98909829  0.65872658  1
  Cr  Cr47  1  0.82397894  0.15658887  0.82594864  1
  Cr  Cr48  1  0.82276672  0.49431535  0.49210500  1
  Cr  Cr49  1  0.65863708  0.32596170  0.65830539  1
  Cr  Cr50  1  0.82358424  0.49335928  0.82327531  1
  Cr  Cr51  1  0.82234834  0.82296065  0.49133887  1
  Ni  Ni52  1  0.65549383  0.66133929  0.65785348  1
  Cr  Cr53  1  0.82244736  0.82502035  0.82534250  1
" 