4236,Ni92Fe4Cr2_10,-239.389333695897, 180.796172458521,Ni92Fe4Cr2,"# generated using pymatgen
 data_CrFeNi25
_symmetry_space_group_name_H-M   'P 1'
_cell_length_a   7.45540480
_cell_length_b   7.45540480
_cell_length_c   10.54353458
_cell_angle_alpha   90.00000000
_cell_angle_beta   90.00000000
_cell_angle_gamma   90.00000000
_symmetry_Int_Tables_number   1
_chemical_formula_structural   CrFeNi25
_chemical_formula_sum   'Cr2 Fe2 Ni50'
_cell_volume   586.04192308
_cell_formula_units_Z   2
loop_
 _symmetry_equiv_pos_site_id
 _symmetry_equiv_pos_as_xyz
  1  'x, y, z'
loop_
 _atom_site_type_symbol
 _atom_site_label
 _atom_site_symmetry_multiplicity
 _atom_site_fract_x
 _atom_site_fract_y
 _atom_site_fract_z
 _atom_site_occupancy
  Ni  Ni0  1  1.00063582  0.00081189  0.00079327  1
  Ni  Ni1  1  0.16668899  0.16659496  0.16654207  1
  Ni  Ni2  1  0.00085047  0.00107910  0.33411416  1
  Ni  Ni3  1  0.00081898  0.33389806  0.00121422  1
  Ni  Ni4  1  0.16668529  0.50165679  0.16658369  1
  Ni  Ni5  1  0.99927204  0.33367551  0.33411416  1
  Ni  Ni6  1  1.00039145  0.66763238  0.00103759  1
  Ni  Ni7  1  0.16790049  0.83409211  0.16743559  1
  Ni  Ni8  1  0.99977326  0.66758914  0.33411416  1
  Ni  Ni9  1  0.33349225  0.00203307  0.00201545  1
  Ni  Ni10  1  0.50138970  0.16641206  0.16621711  1
  Ni  Ni11  1  0.33391965  0.99952859  0.33411416  1
  Ni  Ni12  1  0.33453219  0.33389793  1.00060873  1
  Ni  Ni13  1  0.50147055  0.50191113  0.16628636  1
  Cr  Cr14  1  0.33371698  0.33385429  0.33411416  1
  Ni  Ni15  1  0.33373714  0.66641130  0.00226025  1
  Ni  Ni16  1  0.50043187  0.83401701  0.16769430  1
  Ni  Ni17  1  0.33499221  0.66914344  0.33411416  1
  Ni  Ni18  1  0.66821413  0.00160470  0.00205456  1
  Ni  Ni19  1  0.83426858  0.16763551  0.16744045  1
  Fe  Fe20  1  0.66776088  0.99991482  0.33411416  1
  Ni  Ni21  1  0.66699390  0.33414180  0.00120625  1
  Ni  Ni22  1  0.83418937  0.50069021  0.16751097  1
  Fe  Fe23  1  0.66913893  0.33467708  0.33411416  1
  Ni  Ni24  1  0.66821378  0.66659503  0.00158362  1
  Ni  Ni25  1  0.83401129  0.83401556  0.16708478  1
  Ni  Ni26  1  0.66757957  0.66757304  0.33411416  1
  Ni  Ni27  1  0.16668899  0.16659496  0.50168626  1
  Ni  Ni28  1  1.00063582  0.00081189  0.66743505  1
  Ni  Ni29  1  0.16731556  0.16757922  0.83411416  1
  Ni  Ni30  1  0.16668529  0.50165679  0.50164463  1
  Ni  Ni31  1  0.00081898  0.33389806  0.66701411  1
  Ni  Ni32  1  0.16731555  0.50065557  0.83411416  1
  Ni  Ni33  1  0.16790049  0.83409211  0.50079273  1
  Ni  Ni34  1  1.00039145  0.66763238  0.66719074  1
  Ni  Ni35  1  0.16575997  0.83410775  0.83411416  1
  Ni  Ni36  1  0.50138970  0.16641206  0.50201122  1
  Ni  Ni37  1  0.33349225  0.00203307  0.66621287  1
  Ni  Ni38  1  0.50079897  0.16914397  0.83411416  1
  Ni  Ni39  1  0.50147055  0.50191113  0.50194196  1
  Ni  Ni40  1  0.33453219  0.33389793  0.66761960  1
  Ni  Ni41  1  0.50078356  0.49907549  0.83411416  1
  Ni  Ni42  1  0.50043187  0.83401701  0.50053402  1
  Ni  Ni43  1  0.33373714  0.66641130  0.66596808  1
  Cr  Cr44  1  0.50077599  0.83412241  0.83411416  1
  Ni  Ni45  1  0.83426858  0.16763551  0.50078788  1
  Ni  Ni46  1  0.66821413  0.00160470  0.66617377  1
  Ni  Ni47  1  0.83422799  0.16758841  0.83411416  1
  Ni  Ni48  1  0.83418937  0.50069021  0.50071736  1
  Ni  Ni49  1  0.66699390  0.33414180  0.66702208  1
  Ni  Ni50  1  0.83424348  0.50063094  0.83411416  1
  Ni  Ni51  1  0.83401129  0.83401556  0.50114355  1
  Ni  Ni52  1  0.66821378  0.66659503  0.66664471  1
  Ni  Ni53  1  0.83580825  0.83412308  0.83411416  1
" 