7539,Ni92Fe2Cr4_6,-237.381436932643, 172.726587875843,Ni92Fe2Cr4,"# generated using pymatgen
 data_Cr4FeNi49
_symmetry_space_group_name_H-M   'P 1'
_cell_length_a   7.46185557
_cell_length_b   7.46185557
_cell_length_c   10.55265735
_cell_angle_alpha   90.00000000
_cell_angle_beta   90.00000000
_cell_angle_gamma   90.00000000
_symmetry_Int_Tables_number   1
_chemical_formula_structural   Cr4FeNi49
_chemical_formula_sum   'Cr4 Fe1 Ni49'
_cell_volume   587.56445318
_cell_formula_units_Z   1
loop_
 _symmetry_equiv_pos_site_id
 _symmetry_equiv_pos_as_xyz
  1  'x, y, z'
loop_
 _atom_site_type_symbol
 _atom_site_label
 _atom_site_symmetry_multiplicity
 _atom_site_fract_x
 _atom_site_fract_y
 _atom_site_fract_z
 _atom_site_occupancy
  Ni  Ni0  1  0.00054273  1.00015258  1.00029143  1
  Ni  Ni1  1  0.16702078  0.16727011  0.16675629  1
  Ni  Ni2  1  0.00042980  0.00064276  0.33363468  1
  Ni  Ni3  1  0.00233025  0.33378355  1.00010764  1
  Ni  Ni4  1  0.16701367  0.50032651  0.16699671  1
  Ni  Ni5  1  0.00051888  0.33359682  0.33371697  1
  Ni  Ni6  1  0.00054259  0.66710752  1.00029146  1
  Ni  Ni7  1  0.16702068  0.83344747  0.16771476  1
  Ni  Ni8  1  0.00222900  0.66680705  0.33381958  1
  Ni  Ni9  1  0.33358839  1.00015332  0.99992506  1
  Ni  Ni10  1  0.49952473  0.16596277  0.16830072  1
  Ni  Ni11  1  0.33370040  0.00064091  0.33400137  1
  Ni  Ni12  1  0.33198897  0.33396340  1.00030404  1
  Ni  Ni13  1  0.49846876  0.50056736  0.16723705  1
  Ni  Ni14  1  0.33379191  0.33377648  0.33352137  1
  Ni  Ni15  1  0.33376876  0.66692710  0.00048729  1
  Ni  Ni16  1  0.49976619  0.83451254  0.16593486  1
  Ni  Ni17  1  0.33208904  0.66662881  0.33362346  1
  Ni  Ni18  1  0.66691266  0.99836572  0.00047465  1
  Ni  Ni19  1  0.83449950  0.16596797  0.16830248  1
  Ni  Ni20  1  0.66691149  0.00234741  0.33353480  1
  Cr  Cr21  1  0.66699221  0.33370324  0.00052858  1
  Ni  Ni22  1  0.83556400  0.50056741  0.16723715  1
  Ni  Ni23  1  0.66673244  0.33198282  0.33413010  1
  Ni  Ni24  1  0.66673225  0.66870697  0.99991249  1
  Ni  Ni25  1  0.83425751  0.83450727  0.16593268  1
  Cr  Cr26  1  0.66699152  0.66678822  0.33329035  1
  Ni  Ni27  1  0.16642144  0.16685154  0.49976662  1
  Ni  Ni28  1  0.99986418  0.00045450  0.66711822  1
  Ni  Ni29  1  0.16641557  0.16643584  0.83452400  1
  Ni  Ni30  1  0.16535026  0.49991577  0.49845867  1
  Ni  Ni31  1  0.99815687  0.33359572  0.66721698  1
  Ni  Ni32  1  0.16534748  0.50010395  0.83558828  1
  Fe  Fe33  1  0.16616855  0.83452888  0.49946026  1
  Ni  Ni34  1  0.99806357  0.66699503  0.66693527  1
  Ni  Ni35  1  0.16641943  0.83450513  0.83380232  1
  Ni  Ni36  1  0.50071943  0.16573020  0.49952712  1
  Ni  Ni37  1  0.33388973  0.00045322  0.66711710  1
  Ni  Ni38  1  0.49990453  0.16513249  0.83322355  1
  Ni  Ni39  1  0.50072710  0.49997540  0.49951844  1
  Cr  Cr40  1  0.33390732  0.33218654  0.66762370  1
  Ni  Ni41  1  0.50096446  0.50139717  0.83428924  1
  Ni  Ni42  1  0.50078093  0.83533890  0.50058141  1
  Cr  Cr43  1  0.33387694  0.66833908  0.66678494  1
  Ni  Ni44  1  0.50119481  0.83451210  0.83451905  1
  Ni  Ni45  1  0.83390219  0.16679337  0.50034601  1
  Ni  Ni46  1  0.66728692  0.00036427  0.66703490  1
  Ni  Ni47  1  0.83472490  0.16619906  0.83239793  1
  Ni  Ni48  1  0.83496491  0.49997694  0.50164427  1
  Ni  Ni49  1  0.66890488  0.33377450  0.66662258  1
  Ni  Ni50  1  0.83473143  0.50139554  0.83215964  1
  Ni  Ni51  1  0.83384349  0.83427410  0.50140527  1
  Ni  Ni52  1  0.66889969  0.66690563  0.66741290  1
  Ni  Ni53  1  0.83342679  0.83344793  0.83370020  1
" 