7604,Ni92Fe4Cr2_8,-239.405427088603, 181.401039184925,Ni92Fe4Cr2,"# generated using pymatgen
 data_CrFeNi25
_symmetry_space_group_name_H-M   'P 1'
_cell_length_a   7.45670341
_cell_length_b   7.45670341
_cell_length_c   10.54537109
_cell_angle_alpha   90.00000000
_cell_angle_beta   90.00000000
_cell_angle_gamma   90.00000000
_symmetry_Int_Tables_number   1
_chemical_formula_structural   CrFeNi25
_chemical_formula_sum   'Cr2 Fe2 Ni50'
_cell_volume   586.34821284
_cell_formula_units_Z   2
loop_
 _symmetry_equiv_pos_site_id
 _symmetry_equiv_pos_as_xyz
  1  'x, y, z'
loop_
 _atom_site_type_symbol
 _atom_site_label
 _atom_site_symmetry_multiplicity
 _atom_site_fract_x
 _atom_site_fract_y
 _atom_site_fract_z
 _atom_site_occupancy
  Ni  Ni0  1  0.00106809  1.00008432  0.00082021  1
  Ni  Ni1  1  0.16720968  0.16721529  0.16744115  1
  Ni  Ni2  1  0.00086340  1.00037595  0.33387264  1
  Ni  Ni3  1  0.00124487  0.33462876  0.99988988  1
  Ni  Ni4  1  0.16715036  0.50048695  0.16739085  1
  Ni  Ni5  1  0.00199598  0.33338070  0.33349010  1
  Ni  Ni6  1  0.99995760  0.66737912  1.00057831  1
  Ni  Ni7  1  0.16737185  0.83443207  0.16741744  1
  Ni  Ni8  1  0.00164349  0.66829574  0.33318115  1
  Ni  Ni9  1  0.33385429  0.00181861  1.00020566  1
  Ni  Ni10  1  0.50056265  0.16713130  0.16720324  1
  Ni  Ni11  1  0.33392726  0.00102361  0.33432648  1
  Ni  Ni12  1  0.33305822  0.33232896  0.00168914  1
  Ni  Ni13  1  0.50084044  0.50069734  0.16787315  1
  Ni  Ni14  1  0.33408526  0.33402435  0.33422047  1
  Fe  Fe15  1  0.33310783  0.66828406  0.00162512  1
  Ni  Ni16  1  0.50067739  0.83428691  0.16720698  1
  Ni  Ni17  1  0.33376759  0.66704504  0.33386256  1
  Ni  Ni18  1  0.66713439  1.00039563  1.00021367  1
  Ni  Ni19  1  0.83430556  0.16736108  0.16735329  1
  Ni  Ni20  1  0.66729344  1.00068604  0.33420693  1
  Ni  Ni21  1  0.66776775  0.33352252  0.00166710  1
  Ni  Ni22  1  0.83409882  0.50054563  0.16699717  1
  Ni  Ni23  1  0.66605071  0.33321107  0.33280548  1
  Ni  Ni24  1  0.66958753  0.66819466  0.00133559  1
  Ni  Ni25  1  0.83402178  0.83417182  0.16768125  1
  Ni  Ni26  1  0.66664510  0.66819317  0.33345267  1
  Ni  Ni27  1  0.16741861  0.16688828  0.50057895  1
  Ni  Ni28  1  0.00086113  0.99951960  0.66742397  1
  Ni  Ni29  1  0.16734885  0.16703011  0.83395910  1
  Ni  Ni30  1  0.16923927  0.50092951  0.50085543  1
  Fe  Fe31  1  0.00156697  0.33281684  0.66810366  1
  Ni  Ni32  1  0.16564055  0.50062006  0.83372676  1
  Ni  Ni33  1  0.16752576  0.83420361  0.50060344  1
  Ni  Ni34  1  0.00164992  0.66902871  0.66837961  1
  Ni  Ni35  1  0.16730818  0.83438036  0.83413376  1
  Ni  Ni36  1  0.50068130  0.16719973  0.50083554  1
  Ni  Ni37  1  0.33358293  0.00128940  0.66755642  1
  Ni  Ni38  1  0.50058696  0.16569212  0.83405811  1
  Ni  Ni39  1  0.49903987  0.50082405  0.50040660  1
  Ni  Ni40  1  0.33371746  0.33307205  0.66628549  1
  Cr  Cr41  1  0.50085085  0.50085548  0.83411059  1
  Ni  Ni42  1  0.50039396  0.83404760  0.50114700  1
  Ni  Ni43  1  0.33244584  0.66776795  0.66696163  1
  Ni  Ni44  1  0.50064716  0.83592678  0.83375018  1
  Ni  Ni45  1  0.83398034  0.16542434  0.50053399  1
  Ni  Ni46  1  0.66765739  0.00099349  0.66765773  1
  Ni  Ni47  1  0.83414125  0.16714583  0.83406776  1
  Cr  Cr48  1  0.83383011  0.50080374  0.50072849  1
  Ni  Ni49  1  0.66622601  0.33222660  0.66766665  1
  Ni  Ni50  1  0.83555446  0.50068809  0.83413589  1
  Ni  Ni51  1  0.83417198  0.83584991  0.50061523  1
  Ni  Ni52  1  0.66796407  0.66886289  0.66734053  1
  Ni  Ni53  1  0.83413283  0.83416752  0.83382518  1
" 