5393,Ni92Fe4Cr2_0,-239.416070285539, 180.574710934758,Ni92Fe4Cr2,"# generated using pymatgen
 data_CrFeNi25
_symmetry_space_group_name_H-M   'P 1'
_cell_length_a   7.45657792
_cell_length_b   7.45657792
_cell_length_c   10.54519363
_cell_angle_alpha   90.00000000
_cell_angle_beta   90.00000000
_cell_angle_gamma   90.00000000
_symmetry_Int_Tables_number   1
_chemical_formula_structural   CrFeNi25
_chemical_formula_sum   'Cr2 Fe2 Ni50'
_cell_volume   586.31861128
_cell_formula_units_Z   2
loop_
 _symmetry_equiv_pos_site_id
 _symmetry_equiv_pos_as_xyz
  1  'x, y, z'
loop_
 _atom_site_type_symbol
 _atom_site_label
 _atom_site_symmetry_multiplicity
 _atom_site_fract_x
 _atom_site_fract_y
 _atom_site_fract_z
 _atom_site_occupancy
  Ni  Ni0  1  0.00084322  0.00101348  0.00079917  1
  Ni  Ni1  1  0.16744385  0.16729357  0.16792193  1
  Ni  Ni2  1  0.99995083  0.00082328  0.33385657  1
  Ni  Ni3  1  0.00225771  0.33247971  1.00009880  1
  Ni  Ni4  1  0.16896577  0.50083750  0.16740031  1
  Ni  Ni5  1  0.00239110  0.33234632  0.33492987  1
  Ni  Ni6  1  0.00188053  0.66866261  1.00028210  1
  Ni  Ni7  1  0.16746103  0.83397960  0.16745158  1
  Ni  Ni8  1  0.00382646  0.66887298  0.33483493  1
  Ni  Ni9  1  0.33373286  0.00100456  0.00125473  1
  Ni  Ni10  1  0.50075782  0.16727639  0.16745158  1
  Fe  Fe11  1  0.33401489  0.00072253  0.33387065  1
  Ni  Ni12  1  0.33372394  0.33389420  0.00079917  1
  Ni  Ni13  1  0.49784775  0.49944664  0.16667516  1
  Ni  Ni14  1  0.33391414  0.33478659  0.33385657  1
  Ni  Ni15  1  0.33415231  0.66721671  0.00102281  1
  Ni  Ni16  1  0.49935087  0.83538655  0.16675149  1
  Ni  Ni17  1  0.33246328  0.66653512  0.33377874  1
  Ni  Ni18  1  0.66752071  1.00058511  0.00102281  1
  Ni  Ni19  1  0.83389992  0.16577166  0.16740031  1
  Ni  Ni20  1  0.66820230  0.00227414  0.33377874  1
  Ni  Ni21  1  0.66607481  0.33285689  1.00028210  1
  Cr  Cr22  1  0.83542147  0.49931595  0.16679979  1
  Ni  Ni23  1  0.66586444  0.33091096  0.33483493  1
  Ni  Ni24  1  0.66606996  0.66866746  0.99985427  1
  Ni  Ni25  1  0.83529078  0.83688967  0.16667516  1
  Cr  Cr26  1  0.66587945  0.66885798  0.33531066  1
  Fe  Fe27  1  0.16725980  0.16747762  0.50121696  1
  Ni  Ni28  1  1.00053952  0.00076272  0.66749948  1
  Ni  Ni29  1  0.16767021  0.16706721  0.83335511  1
  Ni  Ni30  1  0.16735663  0.50155969  0.50039889  1
  Ni  Ni31  1  0.00100917  0.33372825  0.66716220  1
  Ni  Ni32  1  0.16722533  0.50092813  0.83430330  1
  Ni  Ni33  1  0.16748658  0.83328045  0.50056058  1
  Ni  Ni34  1  0.00092939  0.66763082  0.66694500  1
  Ni  Ni35  1  0.16766973  0.83410828  0.83405225  1
  Ni  Ni36  1  0.50145697  0.16725084  0.50056058  1
  Ni  Ni37  1  0.33394591  0.00079151  0.66679153  1
  Ni  Ni38  1  0.50062914  0.16706769  0.83405225  1
  Ni  Ni39  1  0.49913994  0.49919172  0.50149110  1
  Ni  Ni40  1  0.33397470  0.33419790  0.66749948  1
  Ni  Ni41  1  0.50057399  0.50044181  0.83394283  1
  Ni  Ni42  1  0.49907952  0.83565790  0.50157742  1
  Ni  Ni43  1  0.33406958  0.66715097  0.66727588  1
  Ni  Ni44  1  0.50015043  0.83458699  0.83371495  1
  Ni  Ni45  1  0.83317773  0.16738079  0.50039889  1
  Ni  Ni46  1  0.66758645  1.00066784  0.66727588  1
  Ni  Ni47  1  0.83380929  0.16751209  0.83430330  1
  Ni  Ni48  1  0.83561437  0.49912305  0.50161023  1
  Ni  Ni49  1  0.66710660  0.33380803  0.66694500  1
  Ni  Ni50  1  0.83429549  0.50044193  0.83351746  1
  Ni  Ni51  1  0.83554570  0.83559748  0.50149110  1
  Ni  Ni52  1  0.66711037  0.66762706  0.66703094  1
  Ni  Ni53  1  0.83429561  0.83416343  0.83394283  1
" 