4254,Ni92Fe2Cr4_3,-237.435059811716, 171.792571535155,Ni92Fe2Cr4,"# generated using pymatgen
 data_Cr4FeNi49
_symmetry_space_group_name_H-M   'P 1'
_cell_length_a   7.46307530
_cell_length_b   7.46307530
_cell_length_c   10.55438231
_cell_angle_alpha   90.00000000
_cell_angle_beta   90.00000000
_cell_angle_gamma   90.00000000
_symmetry_Int_Tables_number   1
_chemical_formula_structural   Cr4FeNi49
_chemical_formula_sum   'Cr4 Fe1 Ni49'
_cell_volume   587.85263449
_cell_formula_units_Z   1
loop_
 _symmetry_equiv_pos_site_id
 _symmetry_equiv_pos_as_xyz
  1  'x, y, z'
loop_
 _atom_site_type_symbol
 _atom_site_label
 _atom_site_symmetry_multiplicity
 _atom_site_fract_x
 _atom_site_fract_y
 _atom_site_fract_z
 _atom_site_occupancy
  Ni  Ni0  1  0.00050120  0.00151914  0.99999353  1
  Ni  Ni1  1  0.16674398  0.16717111  0.16702159  1
  Ni  Ni2  1  0.00046931  0.00094965  0.33389591  1
  Ni  Ni3  1  0.00050485  0.33220536  1.00000317  1
  Ni  Ni4  1  0.16576737  0.49923588  0.16586546  1
  Ni  Ni5  1  0.00046903  0.33294507  0.33372661  1
  Fe  Fe6  1  0.00128773  0.66705844  1.00000132  1
  Ni  Ni7  1  0.16586804  0.83447028  0.16608532  1
  Ni  Ni8  1  0.00030297  0.66694571  0.33286203  1
  Ni  Ni9  1  0.33261367  0.00028577  0.00029094  1
  Ni  Ni10  1  0.50028944  0.16703182  0.16684336  1
  Ni  Ni11  1  0.33195334  0.00282008  0.33248736  1
  Ni  Ni12  1  0.33279024  0.33366229  0.00030000  1
  Ni  Ni13  1  0.49932890  0.49705751  0.16614911  1
  Ni  Ni14  1  0.33295261  0.33187367  0.33353435  1
  Ni  Ni15  1  0.33266465  0.66685916  1.00021955  1
  Ni  Ni16  1  0.49932233  0.83669157  0.16585658  1
  Cr  Cr17  1  0.33162751  0.66578677  0.33283266  1
  Ni  Ni18  1  0.66779145  0.00146101  0.00029199  1
  Ni  Ni19  1  0.83378736  0.16717315  0.16683058  1
  Ni  Ni20  1  0.66836500  0.00268595  0.33220457  1
  Ni  Ni21  1  0.66761371  0.33248981  0.00030232  1
  Ni  Ni22  1  0.83580512  0.49810406  0.16697227  1
  Ni  Ni23  1  0.66737262  0.33200370  0.33326074  1
  Cr  Cr24  1  0.66615184  0.66687340  0.00054023  1
  Ni  Ni25  1  0.83569462  0.83559941  0.16720472  1
  Cr  Cr26  1  0.66884574  0.66577874  0.33291285  1
  Ni  Ni27  1  0.16689235  0.16715760  0.50018452  1
  Ni  Ni28  1  0.00045282  0.00088937  0.66687002  1
  Ni  Ni29  1  0.16684297  0.16715527  0.83362354  1
  Ni  Ni30  1  0.16550441  0.49933951  0.50104131  1
  Ni  Ni31  1  0.00045291  0.33294340  0.66706465  1
  Ni  Ni32  1  0.16680632  0.49999175  0.83384385  1
  Ni  Ni33  1  0.16427458  0.83428579  0.50104099  1
  Ni  Ni34  1  0.00031696  0.66693038  0.66736971  1
  Ni  Ni35  1  0.16699165  0.83368104  0.83352229  1
  Ni  Ni36  1  0.50037571  0.16855458  0.49997653  1
  Ni  Ni37  1  0.33198697  0.00150908  0.66802241  1
  Ni  Ni38  1  0.50027958  0.16694745  0.83390056  1
  Ni  Ni39  1  0.50022715  0.49651866  0.50226910  1
  Ni  Ni40  1  0.33298691  0.33331183  0.66696825  1
  Ni  Ni41  1  0.49943918  0.49915182  0.83250163  1
  Cr  Cr42  1  0.50024580  0.83629916  0.50250509  1
  Ni  Ni43  1  0.33260154  0.66593634  0.66799111  1
  Ni  Ni44  1  0.49943835  0.83467578  0.83281811  1
  Ni  Ni45  1  0.83352489  0.16715301  0.50018492  1
  Ni  Ni46  1  0.66834786  0.00138077  0.66829310  1
  Ni  Ni47  1  0.83369901  0.16715649  0.83381077  1
  Ni  Ni48  1  0.83506018  0.49918542  0.50100106  1
  Ni  Ni49  1  0.66735298  0.33343605  0.66723144  1
  Ni  Ni50  1  0.83466151  0.49898112  0.83276380  1
  Ni  Ni51  1  0.83629270  0.83443788  0.50100024  1
  Ni  Ni52  1  0.66795781  0.66593392  0.66765039  1
  Ni  Ni53  1  0.83447336  0.83468907  0.83243255  1
" 