57,Ni92Fe7Cr0_7,-239.783559418115, 183.903165106795,Ni92Fe7Cr0,"# generated using pymatgen
 data_Cr2Fe3Ni49
_symmetry_space_group_name_H-M   'P 1'
_cell_length_a   7.45218807
_cell_length_b   7.45218807
_cell_length_c   10.53898543
_cell_angle_alpha   90.00000000
_cell_angle_beta   90.00000000
_cell_angle_gamma   90.00000000
_symmetry_Int_Tables_number   1
_chemical_formula_structural   Cr2Fe3Ni49
_chemical_formula_sum   'Cr2 Fe3 Ni49'
_cell_volume   585.28368374
_cell_formula_units_Z   1
loop_
 _symmetry_equiv_pos_site_id
 _symmetry_equiv_pos_as_xyz
  1  'x, y, z'
loop_
 _atom_site_type_symbol
 _atom_site_label
 _atom_site_symmetry_multiplicity
 _atom_site_fract_x
 _atom_site_fract_y
 _atom_site_fract_z
 _atom_site_occupancy
  Ni  Ni0  1  0.00113521  1.00089088  0.00110962  1
  Fe  Fe1  1  0.16783091  0.16744651  0.16678966  1
  Ni  Ni2  1  0.00103145  0.99955738  0.33451605  1
  Ni  Ni3  1  1.00055780  0.33429390  1.00062398  1
  Ni  Ni4  1  0.16908937  0.50338963  0.16662139  1
  Cr  Cr5  1  0.99951877  0.33335090  0.33361433  1
  Ni  Ni6  1  1.00074971  0.66789180  1.00073533  1
  Ni  Ni7  1  0.16716813  0.83369969  0.16798928  1
  Ni  Ni8  1  0.99986506  0.67002335  0.33399469  1
  Ni  Ni9  1  0.33430023  1.00078498  0.00119684  1
  Ni  Ni10  1  0.50180423  0.16788349  0.16777628  1
  Ni  Ni11  1  0.33437281  1.00081696  0.33416261  1
  Ni  Ni12  1  0.33466313  0.33417183  1.00079413  1
  Ni  Ni13  1  0.50043044  0.49952300  0.16798335  1
  Ni  Ni14  1  0.33679339  0.33325482  0.33392430  1
  Ni  Ni15  1  0.33470129  0.66797907  1.00058973  1
  Fe  Fe16  1  0.50204016  0.83395288  0.16742782  1
  Ni  Ni17  1  0.33563073  0.66887708  0.33388384  1
  Ni  Ni18  1  0.66759387  1.00087575  1.00023071  1
  Ni  Ni19  1  0.83160996  0.16596556  0.16686041  1
  Ni  Ni20  1  0.66761952  1.00090841  0.33495172  1
  Ni  Ni21  1  0.66768368  0.33458379  0.00106865  1
  Ni  Ni22  1  0.83348998  0.50191810  0.16700550  1
  Ni  Ni23  1  0.66636346  0.33443184  0.33456910  1
  Ni  Ni24  1  0.66766680  0.66742018  0.00112348  1
  Ni  Ni25  1  0.83553303  0.83515309  0.16777092  1
  Ni  Ni26  1  0.66767111  0.66753239  0.33428128  1
  Ni  Ni27  1  0.16879846  0.16522496  0.50078235  1
  Ni  Ni28  1  0.00188499  0.00121715  0.66733698  1
  Ni  Ni29  1  0.16789459  0.16739944  0.83509723  1
  Cr  Cr30  1  0.16893511  0.50259759  0.50226199  1
  Ni  Ni31  1  0.99969081  0.33274621  0.66871731  1
  Ni  Ni32  1  0.16790037  0.50131718  0.83448263  1
  Ni  Ni33  1  0.16756000  0.83567418  0.50088808  1
  Ni  Ni34  1  0.99939258  0.66904315  0.66835283  1
  Ni  Ni35  1  0.16743214  0.83424339  0.83410158  1
  Ni  Ni36  1  0.50119649  0.16767054  0.50096403  1
  Ni  Ni37  1  0.33372238  1.00078823  0.66755357  1
  Ni  Ni38  1  0.50121178  0.16778330  0.83426609  1
  Ni  Ni39  1  0.50215816  0.50067583  0.50054807  1
  Ni  Ni40  1  0.33554878  0.33274785  0.66833143  1
  Ni  Ni41  1  0.50077717  0.50054751  0.83444200  1
  Ni  Ni42  1  0.50085234  0.83463178  0.50017199  1
  Ni  Ni43  1  0.33621873  0.66941471  0.66851929  1
  Ni  Ni44  1  0.50087350  0.83465998  0.83529308  1
  Ni  Ni45  1  0.83298283  0.16634722  0.50155907  1
  Fe  Fe46  1  0.66732984  1.00051610  0.66790059  1
  Ni  Ni47  1  0.83389509  0.16730970  0.83458952  1
  Ni  Ni48  1  0.83203484  0.50194494  0.50117239  1
  Ni  Ni49  1  0.66775621  0.33521379  0.66733487  1
  Ni  Ni50  1  0.83429950  0.50101313  0.83477183  1
  Ni  Ni51  1  0.83457302  0.83466262  0.50062955  1
  Ni  Ni52  1  0.66732195  0.66719847  0.66755369  1
  Ni  Ni53  1  0.83468166  0.83467131  0.83462052  1
" 