8600,Ni92Fe2Cr4_17,-237.426251902028, 171.92321411,Ni92Fe2Cr4,"# generated using pymatgen
 data_Cr4FeNi49
_symmetry_space_group_name_H-M   'P 1'
_cell_length_a   7.46378026
_cell_length_b   7.46378026
_cell_length_c   10.55537927
_cell_angle_alpha   90.00000000
_cell_angle_beta   90.00000000
_cell_angle_gamma   90.00000000
_symmetry_Int_Tables_number   1
_chemical_formula_structural   Cr4FeNi49
_chemical_formula_sum   'Cr4 Fe1 Ni49'
_cell_volume   588.01923399
_cell_formula_units_Z   1
loop_
 _symmetry_equiv_pos_site_id
 _symmetry_equiv_pos_as_xyz
  1  'x, y, z'
loop_
 _atom_site_type_symbol
 _atom_site_label
 _atom_site_symmetry_multiplicity
 _atom_site_fract_x
 _atom_site_fract_y
 _atom_site_fract_z
 _atom_site_occupancy
  Ni  Ni0  1  0.00143926  0.00245632  0.99925450  1
  Ni  Ni1  1  0.16607833  0.16803168  0.16583162  1
  Ni  Ni2  1  1.00021693  0.00122616  0.33454410  1
  Ni  Ni3  1  0.00126583  0.33131893  0.99896979  1
  Ni  Ni4  1  0.16978955  0.49906356  0.16795036  1
  Ni  Ni5  1  0.00133826  0.33275413  0.33453596  1
  Cr  Cr6  1  0.00154642  0.66614396  0.99786518  1
  Ni  Ni7  1  0.16874496  0.83359366  0.16689666  1
  Ni  Ni8  1  0.00212691  0.66667114  0.33566137  1
  Ni  Ni9  1  0.33379512  0.00055378  1.00010198  1
  Ni  Ni10  1  0.50113951  0.16803057  0.16597853  1
  Cr  Cr11  1  0.33423642  0.00148071  0.33367085  1
  Ni  Ni12  1  0.33378920  0.33333593  0.00048940  1
  Ni  Ni13  1  0.49824980  0.50014253  0.16689432  1
  Ni  Ni14  1  0.33384330  0.33483818  0.33353792  1
  Ni  Ni15  1  0.33499240  0.66677620  0.99984747  1
  Ni  Ni16  1  0.49930632  0.83255796  0.16586170  1
  Ni  Ni17  1  0.33371917  0.66568029  0.33394611  1
  Ni  Ni18  1  0.66543908  0.00131057  0.99926646  1
  Ni  Ni19  1  0.83353652  0.16691510  0.16687870  1
  Ni  Ni20  1  0.66691803  0.00133096  0.33475468  1
  Ni  Ni21  1  0.66561400  0.33271640  0.99898213  1
  Cr  Cr22  1  0.83222060  0.49748892  0.16798772  1
  Ni  Ni23  1  0.66554028  0.33263994  0.33474394  1
  Ni  Ni24  1  0.66338226  0.66661618  0.99822154  1
  Cr  Cr25  1  0.83234768  0.83615426  0.16808337  1
  Ni  Ni26  1  0.66480059  0.66668278  0.33530266  1
  Ni  Ni27  1  0.16611259  0.16794347  0.50134586  1
  Ni  Ni28  1  0.00055220  0.99980437  0.66690655  1
  Ni  Ni29  1  0.16734445  0.16695225  0.83354332  1
  Ni  Ni30  1  0.16718968  0.49978235  0.50005282  1
  Ni  Ni31  1  0.00041201  0.33422800  0.66718379  1
  Ni  Ni32  1  0.16844401  0.49883122  0.83263531  1
  Ni  Ni33  1  0.16624628  0.83288760  0.50111468  1
  Ni  Ni34  1  0.99935299  0.66664377  0.66677083  1
  Ni  Ni35  1  0.16819484  0.83478955  0.83265279  1
  Ni  Ni36  1  0.50085412  0.16798410  0.50139497  1
  Ni  Ni37  1  0.33381657  0.00104111  0.66699931  1
  Ni  Ni38  1  0.49976509  0.16694232  0.83333410  1
  Ni  Ni39  1  0.50001444  0.49997987  0.50000670  1
  Ni  Ni40  1  0.33381891  0.33265180  0.66658606  1
  Ni  Ni41  1  0.49979164  0.49982915  0.83375782  1
  Ni  Ni42  1  0.50101006  0.83265013  0.50112027  1
  Fe  Fe43  1  0.33379740  0.66660510  0.66691820  1
  Ni  Ni44  1  0.49999311  0.83384913  0.83371775  1
  Ni  Ni45  1  0.83371060  0.16690311  0.50008913  1
  Ni  Ni46  1  0.66628622  0.99998078  0.66659137  1
  Ni  Ni47  1  0.83352965  0.16672051  0.83363058  1
  Ni  Ni48  1  0.83349274  0.50005384  0.50025460  1
  Ni  Ni49  1  0.66643461  0.33404373  0.66686938  1
  Ni  Ni50  1  0.83243459  0.49889602  0.83250020  1
  Ni  Ni51  1  0.83348290  0.83368102  0.50005840  1
  Ni  Ni52  1  0.66784125  0.66664151  0.66717079  1
  Ni  Ni53  1  0.83247987  0.83499292  0.83255495  1
" 