3097,Ni92Fe5Cr2_4,-238.542143152998, 177.096326347569,Ni92Fe5Cr2,"# generated using pymatgen
 data_Cr3Fe2Ni49
_symmetry_space_group_name_H-M   'P 1'
_cell_length_a   7.45680489
_cell_length_b   7.45680489
_cell_length_c   10.54551460
_cell_angle_alpha   90.00000000
_cell_angle_beta   90.00000000
_cell_angle_gamma   90.00000000
_symmetry_Int_Tables_number   1
_chemical_formula_structural   Cr3Fe2Ni49
_chemical_formula_sum   'Cr3 Fe2 Ni49'
_cell_volume   586.37215161
_cell_formula_units_Z   1
loop_
 _symmetry_equiv_pos_site_id
 _symmetry_equiv_pos_as_xyz
  1  'x, y, z'
loop_
 _atom_site_type_symbol
 _atom_site_label
 _atom_site_symmetry_multiplicity
 _atom_site_fract_x
 _atom_site_fract_y
 _atom_site_fract_z
 _atom_site_occupancy
  Ni  Ni0  1  0.99946673  0.99907159  1.00066391  1
  Ni  Ni1  1  0.16759458  0.16739788  0.16875359  1
  Ni  Ni2  1  0.00165952  0.00087296  0.33349929  1
  Cr  Cr3  1  1.00033135  0.33359301  0.00084889  1
  Ni  Ni4  1  0.16759307  0.50068540  0.16875652  1
  Ni  Ni5  1  1.00012353  0.33335094  0.33381958  1
  Ni  Ni6  1  0.99812712  0.66964038  0.00090971  1
  Ni  Ni7  1  0.16546516  0.83397706  0.16875642  1
  Ni  Ni8  1  1.00030944  0.66783689  0.33325381  1
  Cr  Cr9  1  0.33309829  0.00205125  1.00047664  1
  Ni  Ni10  1  0.50107119  0.16861800  0.16768758  1
  Ni  Ni11  1  0.33329043  1.00050081  0.33387747  1
  Ni  Ni12  1  0.33644546  0.33334909  0.00090971  1
  Ni  Ni13  1  0.50122788  0.49962254  0.16768895  1
  Ni  Ni14  1  0.33445021  0.33335086  0.33306604  1
  Cr  Cr15  1  0.33441089  0.66641390  0.00084895  1
  Ni  Ni16  1  0.50213909  0.83382145  0.16899760  1
  Ni  Ni17  1  0.33463609  0.66820837  0.33363230  1
  Fe  Fe18  1  0.66912005  0.00068949  1.00020443  1
  Ni  Ni19  1  0.83339622  0.16648875  0.16792793  1
  Fe  Fe20  1  0.66729945  0.00068701  0.33445696  1
  Ni  Ni21  1  0.66587521  0.33469314  1.00066422  1
  Ni  Ni22  1  0.83324020  0.50174855  0.16793059  1
  Ni  Ni23  1  0.66748645  0.33469841  0.33368674  1
  Ni  Ni24  1  0.66910523  0.66667987  1.00066422  1
  Ni  Ni25  1  0.83446103  0.83382099  0.16662202  1
  Ni  Ni26  1  0.66711414  0.66667521  0.33368637  1
  Ni  Ni27  1  0.16735702  0.16737712  0.50071128  1
  Ni  Ni28  1  0.00103029  0.00087283  0.66789654  1
  Ni  Ni29  1  0.16759411  0.16737886  0.83259338  1
  Ni  Ni30  1  0.16735719  0.50068681  0.50067801  1
  Ni  Ni31  1  1.00035134  0.33357885  0.66733126  1
  Ni  Ni32  1  0.16759321  0.50068540  0.83262505  1
  Ni  Ni33  1  0.16735029  0.83399648  0.50071128  1
  Ni  Ni34  1  1.00053727  0.66760896  0.66789705  1
  Ni  Ni35  1  0.16546177  0.83399617  0.83259058  1
  Ni  Ni36  1  0.50057915  0.16746039  0.50079293  1
  Ni  Ni37  1  0.33391659  1.00050095  0.66751876  1
  Ni  Ni38  1  0.50117128  0.16852038  0.83358093  1
  Ni  Ni39  1  0.50065907  0.50068347  0.50071130  1
  Ni  Ni40  1  0.33422244  0.33357845  0.66808497  1
  Ni  Ni41  1  0.50124788  0.49962110  0.83365950  1
  Ni  Ni42  1  0.50058253  0.83391654  0.50079291  1
  Ni  Ni43  1  0.33440834  0.66798081  0.66751869  1
  Ni  Ni44  1  0.50223886  0.83391885  0.83227104  1
  Ni  Ni45  1  0.83412472  0.16745432  0.50079356  1
  Ni  Ni46  1  0.66711457  1.00068678  0.66770955  1
  Ni  Ni47  1  0.83329707  0.16638953  0.83334099  1
  Ni  Ni48  1  0.83404413  0.50069018  0.50071126  1
  Ni  Ni49  1  0.66748647  0.33407094  0.66770897  1
  Ni  Ni50  1  0.83322001  0.50175003  0.83341771  1
  Ni  Ni51  1  0.83412805  0.83391593  0.50079357  1
  Ni  Ni52  1  0.66711442  0.66730269  0.66770935  1
  Ni  Ni53  1  0.83436132  0.83392074  0.83464655  1
" 