6081,Ni92Fe7Cr0_0,-239.708823274675, 183.611055461197,Ni92Fe7Cr0,"# generated using pymatgen
 data_Cr2Fe3Ni49
_symmetry_space_group_name_H-M   'P 1'
_cell_length_a   7.45255846
_cell_length_b   7.45255846
_cell_length_c   10.53950924
_cell_angle_alpha   90.00000000
_cell_angle_beta   90.00000000
_cell_angle_gamma   90.00000000
_symmetry_Int_Tables_number   1
_chemical_formula_structural   Cr2Fe3Ni49
_chemical_formula_sum   'Cr2 Fe3 Ni49'
_cell_volume   585.37095711
_cell_formula_units_Z   1
loop_
 _symmetry_equiv_pos_site_id
 _symmetry_equiv_pos_as_xyz
  1  'x, y, z'
loop_
 _atom_site_type_symbol
 _atom_site_label
 _atom_site_symmetry_multiplicity
 _atom_site_fract_x
 _atom_site_fract_y
 _atom_site_fract_z
 _atom_site_occupancy
  Ni  Ni0  1  1.00066739  1.00087478  0.00123210  1
  Ni  Ni1  1  0.16773588  0.16776113  0.16708820  1
  Fe  Fe2  1  0.00149864  1.00091415  0.33436474  1
  Ni  Ni3  1  0.00145030  0.33343117  0.00204122  1
  Ni  Ni4  1  0.16748073  0.50105309  0.16745798  1
  Ni  Ni5  1  1.00054813  0.33449688  0.33430689  1
  Ni  Ni6  1  0.00152134  0.66860993  0.00197272  1
  Ni  Ni7  1  0.16791908  0.83410212  0.16772523  1
  Ni  Ni8  1  1.00054593  0.66768234  0.33454234  1
  Ni  Ni9  1  0.33440290  1.00087459  0.00101451  1
  Ni  Ni10  1  0.50095881  0.16757518  0.16772754  1
  Ni  Ni11  1  0.33352089  0.00176078  0.33351952  1
  Ni  Ni12  1  0.33440276  0.33421416  0.00125708  1
  Ni  Ni13  1  0.50097067  0.50099631  0.16740269  1
  Ni  Ni14  1  0.33453993  0.33345351  0.33454232  1
  Ni  Ni15  1  0.33433171  0.66782736  0.00118872  1
  Ni  Ni16  1  0.50071831  0.83434493  0.16712555  1
  Ni  Ni17  1  0.33351929  0.66770193  0.33351948  1
  Ni  Ni18  1  0.66784613  1.00094583  0.00116404  1
  Ni  Ni19  1  0.83422181  0.16801394  0.16729114  1
  Fe  Fe20  1  0.66796688  0.00183038  0.33344751  1
  Ni  Ni21  1  0.66706347  0.33336032  0.00197260  1
  Ni  Ni22  1  0.83446485  0.50081293  0.16755030  1
  Ni  Ni23  1  0.66782830  0.33449441  0.33454231  1
  Ni  Ni24  1  0.66706316  0.66861031  0.00194111  1
  Ni  Ni25  1  0.83427909  0.83408981  0.16723590  1
  Ni  Ni26  1  0.66885110  0.66666308  0.33351970  1
  Ni  Ni27  1  0.16755634  0.16794001  0.50157564  1
  Ni  Ni28  1  1.00066737  1.00063906  0.66714176  1
  Fe  Fe29  1  0.16793086  0.16734530  0.83430837  1
  Ni  Ni30  1  0.16730156  0.50087392  0.50120621  1
  Ni  Ni31  1  0.00145006  0.33343150  0.66656866  1
  Ni  Ni32  1  0.16936964  0.50164210  0.83425212  1
  Ni  Ni33  1  0.16600527  0.83410263  0.50112218  1
  Ni  Ni34  1  0.00152097  0.66884520  0.66640159  1
  Ni  Ni35  1  0.16799933  0.83381669  0.83406829  1
  Ni  Ni36  1  0.50095869  0.16948851  0.50112035  1
  Ni  Ni37  1  0.33361573  0.00166205  0.66838196  1
  Ni  Ni38  1  0.50146534  0.16727371  0.83406835  1
  Ni  Ni39  1  0.50097086  0.49908325  0.50144515  1
  Ni  Ni40  1  0.33463844  0.33421410  0.66711688  1
  Ni  Ni41  1  0.49886919  0.50078346  0.83406823  1
  Cr  Cr42  1  0.50049071  0.83424826  0.50134412  1
  Ni  Ni43  1  0.33354449  0.66704018  0.66820797  1
  Ni  Ni44  1  0.50042277  0.83485924  0.83443121  1
  Ni  Ni45  1  0.83440148  0.16819293  0.50137280  1
  Ni  Ni46  1  0.66863305  0.00173270  0.66823204  1
  Ni  Ni47  1  0.83363540  0.16590334  0.83425211  1
  Ni  Ni48  1  0.83464393  0.50063386  0.50111393  1
  Ni  Ni49  1  0.66682815  0.33336061  0.66640150  1
  Cr  Cr50  1  0.83471839  0.50055913  0.83446259  1
  Ni  Ni51  1  0.83619266  0.83408997  0.50161183  1
  Ni  Ni52  1  0.66785075  0.66782311  0.66745541  1
  Ni  Ni53  1  0.83449409  0.83641284  0.83406827  1
" 