307,Ni92Fe2Cr4_11,-237.487438501483, 173.431251403857,Ni92Fe2Cr4,"# generated using pymatgen
 data_Cr4FeNi49
_symmetry_space_group_name_H-M   'P 1'
_cell_length_a   7.46287769
_cell_length_b   7.46287769
_cell_length_c   10.55410284
_cell_angle_alpha   90.00000000
_cell_angle_beta   90.00000000
_cell_angle_gamma   90.00000000
_symmetry_Int_Tables_number   1
_chemical_formula_structural   Cr4FeNi49
_chemical_formula_sum   'Cr4 Fe1 Ni49'
_cell_volume   587.80593900
_cell_formula_units_Z   1
loop_
 _symmetry_equiv_pos_site_id
 _symmetry_equiv_pos_as_xyz
  1  'x, y, z'
loop_
 _atom_site_type_symbol
 _atom_site_label
 _atom_site_symmetry_multiplicity
 _atom_site_fract_x
 _atom_site_fract_y
 _atom_site_fract_z
 _atom_site_occupancy
  Ni  Ni0  1  1.00024110  1.00017224  0.00074071  1
  Ni  Ni1  1  0.16561626  0.16605999  0.16834833  1
  Ni  Ni2  1  0.99999354  0.00166235  0.33339311  1
  Ni  Ni3  1  0.99980517  0.33252614  0.99935189  1
  Ni  Ni4  1  0.16820191  0.50005493  0.16692459  1
  Ni  Ni5  1  0.00134965  0.33106631  0.33443932  1
  Ni  Ni6  1  0.00103743  0.66813010  0.99913112  1
  Ni  Ni7  1  0.16653210  0.83473783  0.16619895  1
  Cr  Cr8  1  0.00091301  0.66917223  0.33510545  1
  Ni  Ni9  1  0.33275008  1.00000863  0.99911091  1
  Ni  Ni10  1  0.50149282  0.16739642  0.16818784  1
  Ni  Ni11  1  0.33272789  0.00149219  0.33485294  1
  Cr  Cr12  1  0.33430926  0.33262710  0.99998677  1
  Ni  Ni13  1  0.49956669  0.49974340  0.16794071  1
  Ni  Ni14  1  0.33379103  0.33336485  0.33350889  1
  Ni  Ni15  1  0.33257604  0.66742639  0.99959930  1
  Cr  Cr16  1  0.50059263  0.83340664  0.16721104  1
  Ni  Ni17  1  0.33393226  0.66594483  0.33417236  1
  Ni  Ni18  1  0.66784985  0.00152866  0.99933382  1
  Ni  Ni19  1  0.83379062  0.16551818  0.16692558  1
  Ni  Ni20  1  0.66807883  0.00130562  0.33444732  1
  Ni  Ni21  1  0.66739869  0.33238658  0.99930716  1
  Cr  Cr22  1  0.83232797  0.49906695  0.16619690  1
  Ni  Ni23  1  0.66566757  0.33219834  0.33427923  1
  Ni  Ni24  1  0.66720186  0.66703887  0.99834353  1
  Ni  Ni25  1  0.83408807  0.83638174  0.16604585  1
  Ni  Ni26  1  0.66555377  0.66719657  0.33580053  1
  Ni  Ni27  1  0.16632164  0.16743121  0.50033699  1
  Ni  Ni28  1  0.99983828  0.99985815  0.66675182  1
  Ni  Ni29  1  0.16529697  0.16597397  0.83202989  1
  Ni  Ni30  1  0.16890073  0.49891622  0.50121832  1
  Ni  Ni31  1  0.00034272  0.33333592  0.66697973  1
  Ni  Ni32  1  0.16581473  0.50110763  0.83280961  1
  Ni  Ni33  1  0.16783100  0.83440543  0.50121832  1
  Ni  Ni34  1  1.00018729  0.66757090  0.66712146  1
  Ni  Ni35  1  0.16688706  0.83368064  0.83347314  1
  Ni  Ni36  1  0.50062290  0.16729524  0.50029681  1
  Ni  Ni37  1  0.33384064  0.00050459  0.66683762  1
  Ni  Ni38  1  0.50150623  0.16580898  0.83222240  1
  Ni  Ni39  1  0.49938817  0.50021464  0.49977935  1
  Ni  Ni40  1  0.33402658  0.33351860  0.66692327  1
  Ni  Ni41  1  0.50123163  0.50154582  0.83307854  1
  Ni  Ni42  1  0.50038761  0.83330757  0.50048505  1
  Ni  Ni43  1  0.33362029  0.66682388  0.66703120  1
  Ni  Ni44  1  0.50027456  0.83343591  0.83303595  1
  Ni  Ni45  1  0.83386354  0.16639144  0.50007799  1
  Ni  Ni46  1  0.66716628  0.00027973  0.66707081  1
  Ni  Ni47  1  0.83405324  0.16700119  0.83394147  1
  Fe  Fe48  1  0.83291830  0.49879867  0.50192726  1
  Ni  Ni49  1  0.66642974  0.33320228  0.66724670  1
  Ni  Ni50  1  0.83380236  0.49998988  0.83264217  1
  Ni  Ni51  1  0.83247075  0.83592621  0.50103816  1
  Ni  Ni52  1  0.66701434  0.66730402  0.66666381  1
  Ni  Ni53  1  0.83366267  0.83384355  0.83396440  1
" 