3112,Ni92Cr8_6,-202.822861343405, 186.614969678417,Ni92Cr8,"# generated using pymatgen
 data_Cr49Ni5
_symmetry_space_group_name_H-M   'P 1'
_cell_length_a   7.59423243
_cell_length_b   7.59423243
_cell_length_c   10.73986650
_cell_angle_alpha   90.00000000
_cell_angle_beta   90.00000000
_cell_angle_gamma   90.00000000
_symmetry_Int_Tables_number   1
_chemical_formula_structural   Cr49Ni5
_chemical_formula_sum   'Cr49 Ni5'
_cell_volume   619.39351462
_cell_formula_units_Z   1
loop_
 _symmetry_equiv_pos_site_id
 _symmetry_equiv_pos_as_xyz
  1  'x, y, z'
loop_
 _atom_site_type_symbol
 _atom_site_label
 _atom_site_symmetry_multiplicity
 _atom_site_fract_x
 _atom_site_fract_y
 _atom_site_fract_z
 _atom_site_occupancy
  Cr  Cr0  1  0.99065169  0.98964642  -0.00735898  1
  Cr  Cr1  1  0.15851639  0.15828453  0.15865491  1
  Cr  Cr2  1  0.99008299  0.99133400  0.32486281  1
  Cr  Cr3  1  -0.00804289  0.32562779  0.99086432  1
  Cr  Cr4  1  0.15857571  0.49313606  0.15687632  1
  Cr  Cr5  1  0.99127333  0.32379528  0.32684533  1
  Ni  Ni6  1  -0.00705155  0.65964118  -0.00716926  1
  Cr  Cr7  1  0.15702694  0.82343154  0.15687118  1
  Cr  Cr8  1  0.99063811  0.65960178  0.32428452  1
  Cr  Cr9  1  0.32462542  0.99064478  0.99086429  1
  Cr  Cr10  1  0.49171239  0.15931013  0.15826118  1
  Cr  Cr11  1  0.32419259  0.99140110  0.32538140  1
  Cr  Cr12  1  0.32587458  0.32719598  -0.00740488  1
  Ni  Ni13  1  0.49049930  0.49346978  0.15693386  1
  Cr  Cr14  1  0.32565278  0.32659818  0.32339210  1
  Ni  Ni15  1  0.32375528  0.65703976  -0.00727945  1
  Cr  Cr16  1  0.49182591  0.82396039  0.15809730  1
  Cr  Cr17  1  0.32621449  0.65702506  0.32468941  1
  Cr  Cr18  1  0.65953364  0.99042642  -0.00777734  1
  Cr  Cr19  1  0.82465195  0.15740002  0.15872556  1
  Cr  Cr20  1  0.66057300  0.99064565  0.32453257  1
  Cr  Cr21  1  0.65709033  0.32614776  -0.00778573  1
  Cr  Cr22  1  0.82515845  0.49350911  0.15724456  1
  Cr  Cr23  1  0.65798114  0.32599480  0.32446767  1
  Cr  Cr24  1  0.65806093  0.65837069  -0.00653604  1
  Ni  Ni25  1  0.82603440  0.82330999  0.15693249  1
  Cr  Cr26  1  0.65798060  0.65823783  0.32328766  1
  Cr  Cr27  1  0.15755522  0.15829731  0.49079524  1
  Cr  Cr28  1  0.99109631  -0.00762729  0.65735590  1
  Cr  Cr29  1  0.15851805  0.15828914  0.82539189  1
  Cr  Cr30  1  0.15754885  0.49204622  0.49161948  1
  Cr  Cr31  1  0.99134270  0.32382024  0.65728057  1
  Cr  Cr32  1  0.15722925  0.49364592  0.82655452  1
  Cr  Cr33  1  0.15889900  0.82455962  0.49162531  1
  Cr  Cr34  1  -0.00837147  0.65860367  0.65834973  1
  Cr  Cr35  1  0.15845755  0.82293979  0.82655896  1
  Cr  Cr36  1  0.49332213  0.15759191  0.49163373  1
  Cr  Cr37  1  0.32419541  0.99147468  0.65868529  1
  Cr  Cr38  1  0.49211169  0.15763687  0.82497747  1
  Cr  Cr39  1  0.49211686  0.49174422  0.49115588  1
  Cr  Cr40  1  0.32451260  0.32543711  0.65869954  1
  Cr  Cr41  1  0.49137894  0.49246748  0.82567822  1
  Cr  Cr42  1  0.49141464  0.82555052  0.49247402  1
  Cr  Cr43  1  0.32519999  0.65798656  0.65794600  1
  Cr  Cr44  1  0.49070982  0.82480469  0.82438760  1
  Ni  Ni45  1  0.82477880  0.15811852  0.49186711  1
  Cr  Cr46  1  0.65959184  -0.00831372  0.65818248  1
  Cr  Cr47  1  0.82425198  0.15895646  0.82451785  1
  Cr  Cr48  1  0.82522813  0.49009850  0.49247575  1
  Cr  Cr49  1  0.65903427  0.32483597  0.65812081  1
  Cr  Cr50  1  0.82634361  0.49248759  0.82523929  1
  Cr  Cr51  1  0.82451511  0.82548299  0.49114370  1
  Cr  Cr52  1  0.65805594  0.65829150  0.65783728  1
  Cr  Cr53  1  0.82569090  0.82340354  0.82650468  1
" 