3400,Ni92Fe5Cr2_3,-238.498662420109, 177.81265512837,Ni92Fe5Cr2,"# generated using pymatgen
 data_Cr3Fe2Ni49
_symmetry_space_group_name_H-M   'P 1'
_cell_length_a   7.45713829
_cell_length_b   7.45713829
_cell_length_c   10.54598611
_cell_angle_alpha   90.00000000
_cell_angle_beta   90.00000000
_cell_angle_gamma   90.00000000
_symmetry_Int_Tables_number   1
_chemical_formula_structural   Cr3Fe2Ni49
_chemical_formula_sum   'Cr3 Fe2 Ni49'
_cell_volume   586.45080814
_cell_formula_units_Z   1
loop_
 _symmetry_equiv_pos_site_id
 _symmetry_equiv_pos_as_xyz
  1  'x, y, z'
loop_
 _atom_site_type_symbol
 _atom_site_label
 _atom_site_symmetry_multiplicity
 _atom_site_fract_x
 _atom_site_fract_y
 _atom_site_fract_z
 _atom_site_occupancy
  Ni  Ni0  1  0.00078533  0.00076282  1.00059085  1
  Ni  Ni1  1  0.16753051  0.16627711  0.16615288  1
  Ni  Ni2  1  0.99997659  0.99829934  0.33330917  1
  Ni  Ni3  1  0.00078560  0.33389761  1.00061051  1
  Ni  Ni4  1  0.16776594  0.50170052  0.16674812  1
  Cr  Cr5  1  1.00005894  0.33480205  0.33340163  1
  Ni  Ni6  1  0.00086719  0.66733216  0.00066511  1
  Ni  Ni7  1  0.16774088  0.83401558  0.16735076  1
  Ni  Ni8  1  0.00098974  0.66890462  0.33432729  1
  Ni  Ni9  1  0.33316170  0.00152231  0.00146935  1
  Ni  Ni10  1  0.50107401  0.16711574  0.16735064  1
  Ni  Ni11  1  0.33491280  0.99976982  0.33323708  1
  Ni  Ni12  1  0.33399879  0.33397661  0.00069643  1
  Ni  Ni13  1  0.50101631  0.50103926  0.16740616  1
  Ni  Ni14  1  0.33646260  0.33478432  0.33320447  1
  Ni  Ni15  1  0.33316001  0.66649462  0.00150052  1
  Ni  Ni16  1  0.50020149  0.83383816  0.16730085  1
  Ni  Ni17  1  0.33389623  0.66744028  0.33425345  1
  Ni  Ni18  1  0.66804666  0.00160195  0.00142602  1
  Ni  Ni19  1  0.83338949  0.16709020  0.16674865  1
  Ni  Ni20  1  0.66710174  0.00086504  0.33432726  1
  Ni  Ni21  1  0.66720933  0.33389533  0.00073943  1
  Ni  Ni22  1  0.83321245  0.50082719  0.16611768  1
  Ni  Ni23  1  0.66563901  0.33377175  0.33425331  1
  Ni  Ni24  1  0.66796761  0.66649495  0.00150011  1
  Fe  Fe25  1  0.83399087  0.83394661  0.16728056  1
  Ni  Ni26  1  0.66710730  0.66735618  0.33409555  1
  Cr  Cr27  1  0.16766083  0.16669565  0.50129997  1
  Ni  Ni28  1  0.99989498  0.99987297  0.66809051  1
  Ni  Ni29  1  0.16656487  0.16767604  0.83433847  1
  Ni  Ni30  1  0.16798374  0.50338790  0.50126856  1
  Ni  Ni31  1  0.99997804  0.33468597  0.66814675  1
  Ni  Ni32  1  0.16761455  0.50051798  0.83397742  1
  Ni  Ni33  1  0.16714365  0.83211430  0.50089927  1
  Ni  Ni34  1  0.00098993  0.66743567  0.66700079  1
  Ni  Ni35  1  0.16525621  0.83379971  0.83374277  1
  Ni  Ni36  1  0.50275911  0.16733240  0.50066500  1
  Ni  Ni37  1  0.33394734  0.00071670  0.66728563  1
  Ni  Ni38  1  0.50107317  0.16921915  0.83397729  1
  Ni  Ni39  1  0.50097884  0.50100202  0.50043085  1
  Ni  Ni40  1  0.33478554  0.33476376  0.66809080  1
  Ni  Ni41  1  0.50020248  0.49915158  0.83415646  1
  Ni  Ni42  1  0.50097854  0.83365905  0.50077046  1
  Ni  Ni43  1  0.33293241  0.66651375  0.66623920  1
  Cr  Cr44  1  0.50087960  0.83357878  0.83396012  1
  Ni  Ni45  1  0.83148619  0.16649252  0.50150214  1
  Ni  Ni46  1  0.66815022  0.00172534  0.66623965  1
  Ni  Ni47  1  0.83435494  0.16686191  0.83374319  1
  Ni  Ni48  1  0.83303191  0.50160610  0.50195442  1
  Ni  Ni49  1  0.66722892  0.33366864  0.66700102  1
  Fe  Fe50  1  0.83429058  0.50041568  0.83404862  1
  Ni  Ni51  1  0.83387104  0.83389382  0.50021220  1
  Ni  Ni52  1  0.66807194  0.66659825  0.66639790  1
  Ni  Ni53  1  0.83571993  0.83467081  0.83437528  1
" 