7274,Ni92Fe5Cr2_2,-238.517135195432, 177.495606392542,Ni92Fe5Cr2,"# generated using pymatgen
 data_Cr3Fe2Ni49
_symmetry_space_group_name_H-M   'P 1'
_cell_length_a   7.45638957
_cell_length_b   7.45638957
_cell_length_c   10.54492725
_cell_angle_alpha   90.00000000
_cell_angle_beta   90.00000000
_cell_angle_gamma   90.00000000
_symmetry_Int_Tables_number   1
_chemical_formula_structural   Cr3Fe2Ni49
_chemical_formula_sum   'Cr3 Fe2 Ni49'
_cell_volume   586.27418054
_cell_formula_units_Z   1
loop_
 _symmetry_equiv_pos_site_id
 _symmetry_equiv_pos_as_xyz
  1  'x, y, z'
loop_
 _atom_site_type_symbol
 _atom_site_label
 _atom_site_symmetry_multiplicity
 _atom_site_fract_x
 _atom_site_fract_y
 _atom_site_fract_z
 _atom_site_occupancy
  Ni  Ni0  1  0.99912945  0.00221042  0.00177562  1
  Fe  Fe1  1  0.16649101  0.16872990  0.16650514  1
  Ni  Ni2  1  0.99802353  0.00193566  0.33281276  1
  Ni  Ni3  1  0.00137424  0.33439029  1.00044077  1
  Ni  Ni4  1  0.16739189  0.50156384  0.16760136  1
  Ni  Ni5  1  1.00060782  0.33440761  0.33422934  1
  Ni  Ni6  1  0.99895879  0.66577827  0.00135151  1
  Ni  Ni7  1  0.16637592  0.83233013  0.16608241  1
  Ni  Ni8  1  0.99921611  0.66601731  0.33294816  1
  Ni  Ni9  1  0.33558673  0.00219304  0.00141701  1
  Ni  Ni10  1  0.50289000  0.16869284  0.16645569  1
  Cr  Cr11  1  0.33553665  0.00192921  0.33286421  1
  Ni  Ni12  1  0.33322354  0.33420103  0.00075464  1
  Ni  Ni13  1  0.50047783  0.49983451  0.16750652  1
  Ni  Ni14  1  0.33395131  0.33570713  0.33426334  1
  Ni  Ni15  1  0.33560811  0.66592192  0.00165534  1
  Ni  Ni16  1  0.50123723  0.83362497  0.16652634  1
  Ni  Ni17  1  0.33532049  0.66484599  0.33293151  1
  Ni  Ni18  1  0.66736870  0.99976618  1.00067503  1
  Ni  Ni19  1  0.83295147  0.16766567  0.16751110  1
  Ni  Ni20  1  0.66881734  1.00052009  0.33431562  1
  Fe  Fe21  1  0.66764195  0.33425861  1.00062920  1
  Ni  Ni22  1  0.83422868  0.49986868  0.16730933  1
  Ni  Ni23  1  0.66753554  0.33426267  0.33337079  1
  Ni  Ni24  1  0.66759821  0.66809484  0.00079233  1
  Ni  Ni25  1  0.83447441  0.83457000  0.16760348  1
  Ni  Ni26  1  0.66760537  0.66736545  0.33389436  1
  Ni  Ni27  1  0.16635952  0.16959175  0.50106154  1
  Ni  Ni28  1  0.99842525  0.00326826  0.66756573  1
  Ni  Ni29  1  0.16731545  0.16883067  0.83448160  1
  Ni  Ni30  1  0.16740341  0.49928925  0.50080897  1
  Ni  Ni31  1  0.00078566  0.33412609  0.66743126  1
  Ni  Ni32  1  0.16751146  0.49928195  0.83365752  1
  Cr  Cr33  1  0.16617061  0.83246857  0.50229692  1
  Ni  Ni34  1  0.99789877  0.66474368  0.66779884  1
  Cr  Cr35  1  0.16733714  0.83355720  0.83386638  1
  Ni  Ni36  1  0.50233134  0.16899724  0.50153434  1
  Ni  Ni37  1  0.33625130  0.00325358  0.66790315  1
  Ni  Ni38  1  0.50120974  0.16781089  0.83415425  1
  Ni  Ni39  1  0.50107000  0.49987888  0.50012925  1
  Ni  Ni40  1  0.33379024  0.33395133  0.66715653  1
  Ni  Ni41  1  0.50074018  0.50010674  0.83454872  1
  Ni  Ni42  1  0.50280216  0.83323134  0.50154824  1
  Ni  Ni43  1  0.33668565  0.66484702  0.66756293  1
  Ni  Ni44  1  0.50201852  0.83420478  0.83408982  1
  Ni  Ni45  1  0.83335796  0.16795927  0.50049424  1
  Ni  Ni46  1  0.66743557  1.00045459  0.66715135  1
  Ni  Ni47  1  0.83359336  0.16761318  0.83413371  1
  Ni  Ni48  1  0.83368789  0.49991011  0.50031463  1
  Ni  Ni49  1  0.66758447  0.33443142  0.66820452  1
  Ni  Ni50  1  0.83389971  0.50010817  0.83454275  1
  Ni  Ni51  1  0.83284999  0.83431108  0.50041421  1
  Ni  Ni52  1  0.66762466  0.66727726  0.66744312  1
  Ni  Ni53  1  0.83283104  0.83440276  0.83407597  1
" 