6041,Ni92Cr8_18,-202.79191073631, 186.016541118403,Ni92Cr8,"# generated using pymatgen
 data_Cr49Ni5
_symmetry_space_group_name_H-M   'P 1'
_cell_length_a   7.59562383
_cell_length_b   7.59562383
_cell_length_c   10.74183424
_cell_angle_alpha   90.00000000
_cell_angle_beta   90.00000000
_cell_angle_gamma   90.00000000
_symmetry_Int_Tables_number   1
_chemical_formula_structural   Cr49Ni5
_chemical_formula_sum   'Cr49 Ni5'
_cell_volume   619.73402854
_cell_formula_units_Z   1
loop_
 _symmetry_equiv_pos_site_id
 _symmetry_equiv_pos_as_xyz
  1  'x, y, z'
loop_
 _atom_site_type_symbol
 _atom_site_label
 _atom_site_symmetry_multiplicity
 _atom_site_fract_x
 _atom_site_fract_y
 _atom_site_fract_z
 _atom_site_occupancy
  Cr  Cr0  1  0.99130542  -0.00773768  -0.00725256  1
  Cr  Cr1  1  0.15825357  0.15902415  0.15705921  1
  Cr  Cr2  1  -0.00800022  0.99108681  0.32412302  1
  Cr  Cr3  1  0.99013143  0.32523892  0.98964140  1
  Cr  Cr4  1  0.15738420  0.49255073  0.15907519  1
  Cr  Cr5  1  0.99041715  0.32460912  0.32496454  1
  Cr  Cr6  1  0.98950091  0.65716621  0.99061122  1
  Cr  Cr7  1  0.15674145  0.82297693  0.15868403  1
  Ni  Ni8  1  0.99119096  0.65784875  0.32512549  1
  Cr  Cr9  1  0.32426068  0.99103400  -0.00768539  1
  Cr  Cr10  1  0.49293888  0.15957209  0.15861774  1
  Cr  Cr11  1  0.32428251  0.99106546  0.32495363  1
  Cr  Cr12  1  0.32417510  0.32524019  0.99110141  1
  Cr  Cr13  1  0.49197793  0.49002306  0.15918328  1
  Cr  Cr14  1  0.32521547  0.32453460  0.32575142  1
  Cr  Cr15  1  0.32611305  0.65833087  -0.00811140  1
  Cr  Cr16  1  0.49193416  0.82493289  0.15706196  1
  Cr  Cr17  1  0.32515361  0.65906386  0.32495522  1
  Cr  Cr18  1  0.65906540  0.99032876  0.99147529  1
  Cr  Cr19  1  0.82337372  0.15902662  0.15913706  1
  Cr  Cr20  1  0.65834659  0.99133006  0.32535703  1
  Cr  Cr21  1  0.66020828  0.32698060  0.99102011  1
  Cr  Cr22  1  0.82522408  0.49146399  0.15991544  1
  Ni  Ni23  1  0.65855674  0.32496911  0.32465712  1
  Cr  Cr24  1  0.65903124  0.65723277  0.99049236  1
  Cr  Cr25  1  0.82597219  0.82394681  0.15918069  1
  Cr  Cr26  1  0.65868616  0.65737353  0.32414330  1
  Cr  Cr27  1  0.15801511  0.15877882  0.49196323  1
  Cr  Cr28  1  0.99061723  -0.00828429  0.65778763  1
  Cr  Cr29  1  0.15872447  0.15802929  0.82555938  1
  Cr  Cr30  1  0.15619980  0.49362770  0.49169666  1
  Cr  Cr31  1  0.99062009  0.32631481  0.65985793  1
  Cr  Cr32  1  0.15664765  0.49294353  0.82394507  1
  Cr  Cr33  1  0.15561801  0.82226463  0.49152426  1
  Ni  Ni34  1  0.98976709  0.65715379  0.65924564  1
  Cr  Cr35  1  0.15722715  0.82382200  0.82438787  1
  Cr  Cr36  1  0.49388648  0.15863565  0.49203886  1
  Cr  Cr37  1  0.32527785  0.99143843  0.65734676  1
  Cr  Cr38  1  0.49249856  0.15742354  0.82401246  1
  Cr  Cr39  1  0.49236594  0.49015473  0.48976457  1
  Cr  Cr40  1  0.32418266  0.32522485  0.65778172  1
  Cr  Cr41  1  0.49197264  0.49096417  0.82552397  1
  Cr  Cr42  1  0.49313331  0.82580098  0.49337647  1
  Cr  Cr43  1  0.32500557  0.65786398  0.65776623  1
  Cr  Cr44  1  0.49224193  0.82629692  0.82428924  1
  Cr  Cr45  1  0.82264784  0.15809780  0.49117729  1
  Ni  Ni46  1  0.65870438  0.99147102  0.65834561  1
  Cr  Cr47  1  0.82346383  0.15787485  0.82437148  1
  Cr  Cr48  1  0.82601180  0.49258939  0.49033251  1
  Cr  Cr49  1  0.65964100  0.32600195  0.65853419  1
  Ni  Ni50  1  0.82617202  0.49290893  0.82360053  1
  Cr  Cr51  1  0.82598366  0.82388947  0.49255109  1
  Cr  Cr52  1  0.65957867  0.65805673  0.65980512  1
  Cr  Cr53  1  0.82530751  0.82439597  0.82312927  1
" 