8190,Ni92Fe7Cr0_10,-239.744543884647, 183.880575731744,Ni92Fe7Cr0,"# generated using pymatgen
 data_Cr2Fe3Ni49
_symmetry_space_group_name_H-M   'P 1'
_cell_length_a   7.45237323
_cell_length_b   7.45237323
_cell_length_c   10.53924730
_cell_angle_alpha   90.00000000
_cell_angle_beta   90.00000000
_cell_angle_gamma   90.00000000
_symmetry_Int_Tables_number   1
_chemical_formula_structural   Cr2Fe3Ni49
_chemical_formula_sum   'Cr2 Fe3 Ni49'
_cell_volume   585.32731244
_cell_formula_units_Z   1
loop_
 _symmetry_equiv_pos_site_id
 _symmetry_equiv_pos_as_xyz
  1  'x, y, z'
loop_
 _atom_site_type_symbol
 _atom_site_label
 _atom_site_symmetry_multiplicity
 _atom_site_fract_x
 _atom_site_fract_y
 _atom_site_fract_z
 _atom_site_occupancy
  Ni  Ni0  1  0.00157387  1.00064803  1.00078153  1
  Ni  Ni1  1  0.16605233  0.16812867  0.16765487  1
  Ni  Ni2  1  0.00115498  0.00106708  0.33424079  1
  Ni  Ni3  1  0.00323614  0.33454943  0.00126584  1
  Ni  Ni4  1  0.16738246  0.50076380  0.16747197  1
  Ni  Ni5  1  1.00095867  0.33429466  0.33352589  1
  Ni  Ni6  1  1.00046006  0.66775589  0.00101408  1
  Ni  Ni7  1  0.16763737  0.83406117  0.16797943  1
  Ni  Ni8  1  1.00089778  0.66759191  0.33422995  1
  Ni  Ni9  1  0.33337125  1.00066653  1.00017111  1
  Cr  Cr10  1  0.50034283  0.16657129  0.16851123  1
  Ni  Ni11  1  0.33353535  1.00022951  0.33507261  1
  Ni  Ni12  1  0.33145420  0.33427603  0.99991519  1
  Ni  Ni13  1  0.50024459  0.50352022  0.16905155  1
  Ni  Ni14  1  0.33339876  0.33479990  0.33505939  1
  Fe  Fe15  1  0.33406506  0.66796679  0.00104727  1
  Ni  Ni16  1  0.50134041  0.83265463  0.16747161  1
  Ni  Ni17  1  0.33429721  0.66792494  0.33367658  1
  Ni  Ni18  1  0.66800915  0.99789074  1.00017078  1
  Ni  Ni19  1  0.83673296  0.16703256  0.16871668  1
  Ni  Ni20  1  0.66826371  1.00016831  0.33462076  1
  Cr  Cr21  1  0.66840308  0.33528318  0.99995872  1
  Ni  Ni22  1  0.83532597  0.50193490  0.16849465  1
  Ni  Ni23  1  0.66859630  0.33505713  0.33519198  1
  Ni  Ni24  1  0.66828205  0.66967294  0.00101017  1
  Ni  Ni25  1  0.83397575  0.83398582  0.16765500  1
  Ni  Ni26  1  0.66775865  0.66772860  0.33396449  1
  Ni  Ni27  1  0.16846173  0.16820981  0.50062835  1
  Fe  Fe28  1  0.00098807  1.00098184  0.66764753  1
  Ni  Ni29  1  0.16820629  0.16823413  0.83466973  1
  Ni  Ni30  1  0.16707724  0.50092982  0.50089818  1
  Ni  Ni31  1  1.00095870  0.33517698  0.66816204  1
  Ni  Ni32  1  0.16760155  0.50057225  0.83458359  1
  Ni  Ni33  1  0.16826738  0.83381405  0.50082524  1
  Ni  Ni34  1  1.00089790  0.66696250  0.66770956  1
  Ni  Ni35  1  0.16793429  0.83414735  0.83414859  1
  Ni  Ni36  1  0.50098541  0.16701992  0.50108969  1
  Ni  Ni37  1  0.33500756  0.00107213  0.66770962  1
  Ni  Ni38  1  0.50016967  0.16680601  0.83336968  1
  Fe  Fe39  1  0.50098310  0.50092289  0.50092258  1
  Ni  Ni40  1  0.33401389  0.33372905  0.66797919  1
  Ni  Ni41  1  0.50024482  0.50147158  0.83316651  1
  Ni  Ni42  1  0.50098303  0.83520116  0.50070153  1
  Ni  Ni43  1  0.33381728  0.66815263  0.66826712  1
  Ni  Ni44  1  0.50134036  0.83467628  0.83478024  1
  Ni  Ni45  1  0.83350641  0.16821004  0.50062822  1
  Ni  Ni46  1  0.66679037  0.00101121  0.66816200  1
  Ni  Ni47  1  0.83457809  0.16713826  0.83360834  1
  Ni  Ni48  1  0.83489327  0.50092742  0.50089816  1
  Ni  Ni49  1  0.66798098  0.33398628  0.66784671  1
  Ni  Ni50  1  0.83510669  0.50174298  0.83356118  1
  Ni  Ni51  1  0.83370309  0.83381622  0.50082508  1
  Ni  Ni52  1  0.66823848  0.66795622  0.66797939  1
  Ni  Ni53  1  0.83367875  0.83407172  0.83447317  1
" 