527,Ni92Fe2Cr4_4,-237.462061838841, 173.520368844116,Ni92Fe2Cr4,"# generated using pymatgen
 data_Cr4FeNi49
_symmetry_space_group_name_H-M   'P 1'
_cell_length_a   7.46255216
_cell_length_b   7.46255216
_cell_length_c   10.55364248
_cell_angle_alpha   90.00000000
_cell_angle_beta   90.00000000
_cell_angle_gamma   90.00000000
_symmetry_Int_Tables_number   1
_chemical_formula_structural   Cr4FeNi49
_chemical_formula_sum   'Cr4 Fe1 Ni49'
_cell_volume   587.72902238
_cell_formula_units_Z   1
loop_
 _symmetry_equiv_pos_site_id
 _symmetry_equiv_pos_as_xyz
  1  'x, y, z'
loop_
 _atom_site_type_symbol
 _atom_site_label
 _atom_site_symmetry_multiplicity
 _atom_site_fract_x
 _atom_site_fract_y
 _atom_site_fract_z
 _atom_site_occupancy
  Ni  Ni0  1  0.00136187  0.99940909  0.99916035  1
  Ni  Ni1  1  0.16956478  0.16571409  0.16612966  1
  Ni  Ni2  1  0.00127034  0.99800123  0.33466045  1
  Ni  Ni3  1  0.00135808  0.33462646  0.99877780  1
  Ni  Ni4  1  0.16828040  0.50191339  0.16647096  1
  Cr  Cr5  1  0.00150268  0.33459881  0.33523378  1
  Ni  Ni6  1  1.00028133  0.66686858  0.00086384  1
  Ni  Ni7  1  0.16697388  0.83326499  0.16715963  1
  Ni  Ni8  1  1.00028077  0.66853182  0.33320371  1
  Ni  Ni9  1  0.33318041  0.99913365  0.00138455  1
  Ni  Ni10  1  0.49876497  0.16704938  0.16725278  1
  Ni  Ni11  1  0.33385150  0.00035763  0.33335032  1
  Ni  Ni12  1  0.33263893  0.33446878  0.00171844  1
  Ni  Ni13  1  0.50006691  0.50060612  0.16687600  1
  Ni  Ni14  1  0.33532757  0.33349136  0.33330608  1
  Ni  Ni15  1  0.33405882  0.66732192  0.99982230  1
  Ni  Ni16  1  0.50010147  0.83326471  0.16747272  1
  Ni  Ni17  1  0.33387971  0.66704605  0.33381876  1
  Ni  Ni18  1  0.66641544  0.99811591  0.00033407  1
  Cr  Cr19  1  0.83252008  0.16560869  0.16597274  1
  Ni  Ni20  1  0.66570963  0.99931004  0.33442472  1
  Ni  Ni21  1  0.66689108  0.33552394  0.00062226  1
  Ni  Ni22  1  0.83253160  0.50316457  0.16646136  1
  Ni  Ni23  1  0.66440915  0.33446385  0.33434675  1
  Ni  Ni24  1  0.66657330  0.66735033  1.00002617  1
  Ni  Ni25  1  0.83384263  0.83195543  0.16715948  1
  Ni  Ni26  1  0.66672154  0.66707145  0.33362809  1
  Ni  Ni27  1  0.16855231  0.16538458  0.50141853  1
  Ni  Ni28  1  0.00036069  0.00164177  0.66699572  1
  Ni  Ni29  1  0.16578663  0.16666252  0.83333973  1
  Ni  Ni30  1  0.16949200  0.50124018  0.50030486  1
  Ni  Ni31  1  0.00036460  0.33214712  0.66697111  1
  Ni  Ni32  1  0.16833867  0.49993635  0.83416880  1
  Ni  Ni33  1  0.16714227  0.83419336  0.49928983  1
  Cr  Cr34  1  1.00019474  0.66675421  0.66721978  1
  Ni  Ni35  1  0.16784736  0.83424954  0.83449330  1
  Ni  Ni36  1  0.50024788  0.16777522  0.49970321  1
  Ni  Ni37  1  0.33308023  0.99946027  0.66613286  1
  Cr  Cr38  1  0.50016981  0.16749386  0.83422021  1
  Ni  Ni39  1  0.50008184  0.49972198  0.50056090  1
  Ni  Ni40  1  0.33281613  0.33427584  0.66593789  1
  Ni  Ni41  1  0.50010208  0.50186698  0.83344735  1
  Fe  Fe42  1  0.50006099  0.83341528  0.50031542  1
  Ni  Ni43  1  0.33532807  0.66713266  0.66714429  1
  Ni  Ni44  1  0.50010766  0.83201913  0.83267343  1
  Ni  Ni45  1  0.83212899  0.16540009  0.50177964  1
  Ni  Ni46  1  0.66744918  0.99927101  0.66612177  1
  Ni  Ni47  1  0.83480812  0.16666447  0.83295599  1
  Ni  Ni48  1  0.83127944  0.50112161  0.50005704  1
  Ni  Ni49  1  0.66769882  0.33445912  0.66595418  1
  Ni  Ni50  1  0.83246782  0.49975961  0.83446966  1
  Ni  Ni51  1  0.83362721  0.83438431  0.49899419  1
  Ni  Ni52  1  0.66541311  0.66714013  0.66714069  1
  Ni  Ni53  1  0.83295931  0.83446135  0.83481666  1
" 