1641,Ni92Fe7Cr0_17,-239.711107455398, 183.509836457222,Ni92Fe7Cr0,"# generated using pymatgen
 data_Cr2Fe3Ni49
_symmetry_space_group_name_H-M   'P 1'
_cell_length_a   7.44946518
_cell_length_b   7.44946518
_cell_length_c   10.53513469
_cell_angle_alpha   90.00000000
_cell_angle_beta   90.00000000
_cell_angle_gamma   90.00000000
_symmetry_Int_Tables_number   1
_chemical_formula_structural   Cr2Fe3Ni49
_chemical_formula_sum   'Cr2 Fe3 Ni49'
_cell_volume   584.64236323
_cell_formula_units_Z   1
loop_
 _symmetry_equiv_pos_site_id
 _symmetry_equiv_pos_as_xyz
  1  'x, y, z'
loop_
 _atom_site_type_symbol
 _atom_site_label
 _atom_site_symmetry_multiplicity
 _atom_site_fract_x
 _atom_site_fract_y
 _atom_site_fract_z
 _atom_site_occupancy
  Ni  Ni0  1  0.00130325  1.00068155  0.00148278  1
  Ni  Ni1  1  0.16704997  0.16685912  0.16819073  1
  Ni  Ni2  1  0.00162545  0.00159106  0.33445462  1
  Fe  Fe3  1  0.99960867  0.33449014  0.00149072  1
  Ni  Ni4  1  0.16704697  0.50241816  0.16843420  1
  Ni  Ni5  1  1.00074678  0.33452794  0.33379370  1
  Ni  Ni6  1  0.00288175  0.66837810  0.00143330  1
  Ni  Ni7  1  0.16806716  0.83426161  0.16741754  1
  Ni  Ni8  1  0.00141629  0.66742072  0.33426743  1
  Ni  Ni9  1  0.33404235  0.99997585  0.00123765  1
  Ni  Ni10  1  0.50230956  0.16692667  0.16837822  1
  Ni  Ni11  1  0.33431470  1.00096327  0.33401694  1
  Cr  Cr12  1  0.33539072  0.33472048  0.00160728  1
  Ni  Ni13  1  0.50104917  0.50108059  0.16916157  1
  Fe  Fe14  1  0.33443252  0.33447863  0.33478489  1
  Ni  Ni15  1  0.33244546  0.66909578  0.00118527  1
  Ni  Ni16  1  0.49996778  0.83553040  0.16812544  1
  Ni  Ni17  1  0.33452508  0.66804420  0.33382665  1
  Ni  Ni18  1  0.66818276  0.00331979  0.00143386  1
  Ni  Ni19  1  0.83416796  0.16794975  0.16747003  1
  Ni  Ni20  1  0.66760093  0.00162982  0.33401754  1
  Ni  Ni21  1  0.66891852  0.33288804  0.00118439  1
  Ni  Ni22  1  0.83543178  0.50006498  0.16823552  1
  Ni  Ni23  1  0.66822007  0.33473878  0.33407862  1
  Cr  Cr24  1  0.66790383  0.66738666  0.00131836  1
  Ni  Ni25  1  0.83550309  0.83552509  0.16848156  1
  Ni  Ni26  1  0.66760120  0.66717319  0.33438317  1
  Ni  Ni27  1  0.16773440  0.16776426  0.50171292  1
  Ni  Ni28  1  0.00130087  0.00126806  0.66760130  1
  Fe  Fe29  1  0.16727315  0.16672850  0.83339104  1
  Ni  Ni30  1  0.16773595  0.50131190  0.50123927  1
  Ni  Ni31  1  0.00123887  0.33463359  0.66851209  1
  Ni  Ni32  1  0.16714571  0.50290787  0.83386543  1
  Ni  Ni33  1  0.16785033  0.83446090  0.50118167  1
  Ni  Ni34  1  0.00118663  0.66763224  0.66784051  1
  Ni  Ni35  1  0.16807884  0.83366669  0.83493891  1
  Ni  Ni36  1  0.50132615  0.16773942  0.50123791  1
  Ni  Ni37  1  0.33442495  0.00144741  0.66828393  1
  Ni  Ni38  1  0.50280937  0.16703011  0.83391824  1
  Ni  Ni39  1  0.50105949  0.50107214  0.50148728  1
  Ni  Ni40  1  0.33466808  0.33463788  0.66719960  1
  Ni  Ni41  1  0.50072908  0.50075845  0.83289246  1
  Ni  Ni42  1  0.50097413  0.83472736  0.50143354  1
  Ni  Ni43  1  0.33453888  0.66745091  0.66852767  1
  Ni  Ni44  1  0.49973800  0.83575190  0.83397796  1
  Ni  Ni45  1  0.83447626  0.16785284  0.50118195  1
  Ni  Ni46  1  0.66781419  0.00139964  0.66808878  1
  Ni  Ni47  1  0.83358400  0.16796817  0.83489180  1
  Ni  Ni48  1  0.83474247  0.50095905  0.50143355  1
  Ni  Ni49  1  0.66763034  0.33475225  0.66827759  1
  Ni  Ni50  1  0.83566052  0.49982740  0.83387480  1
  Ni  Ni51  1  0.83471583  0.83472841  0.50137163  1
  Ni  Ni52  1  0.66781690  0.66738896  0.66778660  1
  Ni  Ni53  1  0.83571895  0.83573944  0.83368572  1
" 