2974,Ni92Fe4Cr2_19,-239.405842226313, 180.836440720868,Ni92Fe4Cr2,"# generated using pymatgen
 data_CrFeNi25
_symmetry_space_group_name_H-M   'P 1'
_cell_length_a   7.45496516
_cell_length_b   7.45496516
_cell_length_c   10.54291283
_cell_angle_alpha   90.00000000
_cell_angle_beta   90.00000000
_cell_angle_gamma   90.00000000
_symmetry_Int_Tables_number   1
_chemical_formula_structural   CrFeNi25
_chemical_formula_sum   'Cr2 Fe2 Ni50'
_cell_volume   585.93825329
_cell_formula_units_Z   2
loop_
 _symmetry_equiv_pos_site_id
 _symmetry_equiv_pos_as_xyz
  1  'x, y, z'
loop_
 _atom_site_type_symbol
 _atom_site_label
 _atom_site_symmetry_multiplicity
 _atom_site_fract_x
 _atom_site_fract_y
 _atom_site_fract_z
 _atom_site_occupancy
  Ni  Ni0  1  0.00154707  0.00150991  1.00010293  1
  Ni  Ni1  1  0.16765331  0.16757428  0.16706859  1
  Ni  Ni2  1  0.00165994  0.00138900  0.33519649  1
  Ni  Ni3  1  1.00046620  0.33424788  1.00069282  1
  Ni  Ni4  1  0.16765312  0.50074152  0.16755639  1
  Ni  Ni5  1  1.00057835  0.33413557  0.33436003  1
  Ni  Ni6  1  0.00162734  0.66667481  1.00003095  1
  Ni  Ni7  1  0.16948745  0.83411505  0.16774967  1
  Ni  Ni8  1  0.00164674  0.66690614  0.33519668  1
  Ni  Ni9  1  0.33402447  1.00068951  0.00092969  1
  Ni  Ni10  1  0.50070256  0.16737088  0.16774918  1
  Ni  Ni11  1  0.33306905  0.00164376  0.33329262  1
  Ni  Ni12  1  0.33428505  0.33424896  0.00093548  1
  Ni  Ni13  1  0.50044905  0.50069125  0.16749575  1
  Ni  Ni14  1  0.33440457  0.33413551  0.33436511  1
  Ni  Ni15  1  0.33394225  0.66749184  0.00085544  1
  Ni  Ni16  1  0.49881784  0.83436864  0.16711022  1
  Ni  Ni17  1  0.33308225  0.66665124  0.33329229  1
  Ni  Ni18  1  0.66686297  0.00185174  0.99977723  1
  Ni  Ni19  1  0.83407546  0.16920417  0.16755664  1
  Ni  Ni20  1  0.66770205  0.00271233  0.33437198  1
  Ni  Ni21  1  0.66768077  0.33416672  0.00110815  1
  Ni  Ni22  1  0.83432883  0.49885685  0.16730354  1
  Ni  Ni23  1  0.66744820  0.33414905  0.33411830  1
  Ni  Ni24  1  0.66686089  0.66641110  0.99973248  1
  Cr  Cr25  1  0.83409968  0.83430760  0.16752499  1
  Ni  Ni26  1  0.66770207  0.66556856  0.33437201  1
  Ni  Ni27  1  0.16739643  0.16746265  0.50111907  1
  Ni  Ni28  1  1.00070722  0.99980486  0.66713217  1
  Fe  Fe29  1  0.16776673  0.16721388  0.83443056  1
  Ni  Ni30  1  0.16739792  0.50085408  0.50062988  1
  Fe  Fe31  1  1.00051297  0.33443361  0.66719568  1
  Ni  Ni32  1  0.16758028  0.50167184  0.83424359  1
  Ni  Ni33  1  0.16549580  0.83411576  0.50050983  1
  Ni  Ni34  1  1.00078724  0.66838110  0.66720425  1
  Ni  Ni35  1  0.16750011  0.83348181  0.83417138  1
  Ni  Ni36  1  0.50088599  0.16917247  0.50070271  1
  Ni  Ni37  1  0.33295022  0.00199591  0.66821151  1
  Ni  Ni38  1  0.50152135  0.16716971  0.83397864  1
  Ni  Ni39  1  0.50063332  0.49888878  0.50095540  1
  Ni  Ni40  1  0.33514995  0.33424745  0.66713138  1
  Ni  Ni41  1  0.50040266  0.50066216  0.83397944  1
  Cr  Cr42  1  0.50084949  0.83430757  0.50077515  1
  Ni  Ni43  1  0.33287152  0.66619110  0.66828243  1
  Ni  Ni44  1  0.50059180  0.83459905  0.83451377  1
  Ni  Ni45  1  0.83414696  0.16727115  0.50043686  1
  Ni  Ni46  1  0.66877042  0.00208219  0.66828210  1
  Ni  Ni47  1  0.83333129  0.16708925  0.83443677  1
  Ni  Ni48  1  0.83439908  0.50079177  0.50068891  1
  Ni  Ni49  1  0.66658071  0.33416657  0.66720426  1
  Ni  Ni50  1  0.83444823  0.50074267  0.83443665  1
  Ni  Ni51  1  0.83611226  0.83436851  0.50114846  1
  Ni  Ni52  1  0.66877296  0.66618115  0.66832663  1
  Ni  Ni53  1  0.83433913  0.83459868  0.83378642  1
" 