6495,Ni92Cr8_3,-202.826469427118, 185.146945808843,Ni92Cr8,"# generated using pymatgen
 data_Cr49Ni5
_symmetry_space_group_name_H-M   'P 1'
_cell_length_a   7.59586596
_cell_length_b   7.59586596
_cell_length_c   10.74217666
_cell_angle_alpha   90.00000000
_cell_angle_beta   90.00000000
_cell_angle_gamma   90.00000000
_symmetry_Int_Tables_number   1
_chemical_formula_structural   Cr49Ni5
_chemical_formula_sum   'Cr49 Ni5'
_cell_volume   619.79329747
_cell_formula_units_Z   1
loop_
 _symmetry_equiv_pos_site_id
 _symmetry_equiv_pos_as_xyz
  1  'x, y, z'
loop_
 _atom_site_type_symbol
 _atom_site_label
 _atom_site_symmetry_multiplicity
 _atom_site_fract_x
 _atom_site_fract_y
 _atom_site_fract_z
 _atom_site_occupancy
  Cr  Cr0  1  -0.00839975  0.99144074  -0.00791698  1
  Cr  Cr1  1  0.15777023  0.15831687  0.15847637  1
  Cr  Cr2  1  0.99097300  -0.00793201  0.32485383  1
  Cr  Cr3  1  0.98970127  0.32578292  -0.00815072  1
  Cr  Cr4  1  0.15846488  0.49166758  0.15917358  1
  Cr  Cr5  1  -0.00764428  0.32485474  0.32485383  1
  Cr  Cr6  1  0.99025066  0.65733879  0.99073370  1
  Cr  Cr7  1  0.15846405  0.82457695  0.15735753  1
  Cr  Cr8  1  0.99096591  0.65763881  0.32485383  1
  Cr  Cr9  1  0.32570220  -0.00720967  0.99073370  1
  Cr  Cr10  1  0.49272695  0.15897835  0.15734182  1
  Cr  Cr11  1  0.32540218  -0.00792491  0.32485383  1
  Cr  Cr12  1  0.32759712  0.32443654  0.99050460  1
  Cr  Cr13  1  0.49203448  0.49100651  0.15803658  1
  Cr  Cr14  1  0.32402022  0.32484758  0.32485383  1
  Cr  Cr15  1  0.32570519  0.65733580  0.99115681  1
  Cr  Cr16  1  0.49137341  0.82457611  0.15917358  1
  Cr  Cr17  1  0.32540218  0.65763882  0.32485383  1
  Cr  Cr18  1  0.65725808  -0.00666027  -0.00815072  1
  Cr  Cr19  1  0.82406377  0.15897722  0.15782199  1
  Cr  Cr20  1  0.65818625  0.99068527  0.32485383  1
  Ni  Ni21  1  0.65714332  0.32589768  0.98817927  1
  Cr  Cr22  1  0.82406265  0.49031404  0.15734182  1
  Cr  Cr23  1  0.65818618  0.32485481  0.32485383  1
  Cr  Cr24  1  0.65860445  0.65544388  0.99050460  1
  Cr  Cr25  1  0.82472412  0.82527076  0.15847637  1
  Cr  Cr26  1  0.65819341  0.65902077  0.32485383  1
  Cr  Cr27  1  0.15777023  0.15831687  0.49123129  1
  Cr  Cr28  1  -0.00839975  0.99144074  0.65762464  1
  Cr  Cr29  1  0.15948876  0.15747258  0.82485383  1
  Cr  Cr30  1  0.15846488  0.49166758  0.49053408  1
  Cr  Cr31  1  0.98970127  0.32578292  0.65785838  1
  Cr  Cr32  1  0.15824464  0.49229346  0.82485383  1
  Cr  Cr33  1  0.15846405  0.82457695  0.49235013  1
  Cr  Cr34  1  0.99025066  0.65733879  0.65897395  1
  Cr  Cr35  1  0.15824649  0.82479450  0.82485383  1
  Cr  Cr36  1  0.49272695  0.15897835  0.49236584  1
  Cr  Cr37  1  0.32570220  -0.00720967  0.65897395  1
  Ni  Ni38  1  0.49382245  0.16280557  0.82485383  1
  Cr  Cr39  1  0.49203448  0.49100651  0.49167108  1
  Cr  Cr40  1  0.32759712  0.32443654  0.65920306  1
  Ni  Ni41  1  0.49593042  0.48711057  0.82485383  1
  Cr  Cr42  1  0.49137341  0.82457611  0.49053408  1
  Cr  Cr43  1  0.32570519  0.65733580  0.65855085  1
  Cr  Cr44  1  0.49074753  0.82479635  0.82485383  1
  Cr  Cr45  1  0.82406377  0.15897722  0.49188566  1
  Cr  Cr46  1  0.65725808  -0.00666027  0.65785838  1
  Cr  Cr47  1  0.82164343  0.16139756  0.82485383  1
  Cr  Cr48  1  0.82406265  0.49031404  0.49236584  1
  Ni  Ni49  1  0.65714332  0.32589768  0.66152839  1
  Ni  Ni50  1  0.82023542  0.48921854  0.82485383  1
  Cr  Cr51  1  0.82472412  0.82527076  0.49123129  1
  Cr  Cr52  1  0.65860445  0.65544388  0.65920306  1
  Cr  Cr53  1  0.82556842  0.82355224  0.82485383  1
" 