1996,Ni92Fe4Cr2_12,-239.377646799688, 180.156654408325,Ni92Fe4Cr2,"# generated using pymatgen
 data_CrFeNi25
_symmetry_space_group_name_H-M   'P 1'
_cell_length_a   7.45655313
_cell_length_b   7.45655313
_cell_length_c   10.54515856
_cell_angle_alpha   90.00000000
_cell_angle_beta   90.00000000
_cell_angle_gamma   90.00000000
_symmetry_Int_Tables_number   1
_chemical_formula_structural   CrFeNi25
_chemical_formula_sum   'Cr2 Fe2 Ni50'
_cell_volume   586.31276152
_cell_formula_units_Z   2
loop_
 _symmetry_equiv_pos_site_id
 _symmetry_equiv_pos_as_xyz
  1  'x, y, z'
loop_
 _atom_site_type_symbol
 _atom_site_label
 _atom_site_symmetry_multiplicity
 _atom_site_fract_x
 _atom_site_fract_y
 _atom_site_fract_z
 _atom_site_occupancy
  Ni  Ni0  1  1.00063699  0.00084510  0.00078650  1
  Ni  Ni1  1  0.16753284  0.16764389  0.16712674  1
  Ni  Ni2  1  0.00085897  1.00061107  0.33395664  1
  Ni  Ni3  1  1.00013471  0.33347443  1.00019830  1
  Ni  Ni4  1  0.16603388  0.49920700  0.16862217  1
  Ni  Ni5  1  1.00040360  0.33374588  0.33450685  1
  Ni  Ni6  1  0.99911257  0.66779736  1.00043420  1
  Ni  Ni7  1  0.16600991  0.83526943  0.16864471  1
  Ni  Ni8  1  1.00065340  0.66774913  0.33400886  1
  Ni  Ni9  1  0.33378850  0.00201457  0.00079039  1
  Ni  Ni10  1  0.50068015  0.16720860  0.16714615  1
  Ni  Ni11  1  0.33385012  1.00050988  0.33366915  1
  Ni  Ni12  1  0.33429128  0.33241093  1.00019354  1
  Ni  Ni13  1  0.50185850  0.49942060  0.16857801  1
  Ni  Ni14  1  0.33430603  0.33381276  0.33425384  1
  Cr  Cr15  1  0.33370515  0.66809910  0.00084366  1
  Ni  Ni16  1  0.50231899  0.83549125  0.16860435  1
  Ni  Ni17  1  0.33411358  0.66779118  0.33478641  1
  Ni  Ni18  1  0.66768062  0.00101539  0.99985553  1
  Ni  Ni19  1  0.83391986  0.16721879  0.16806140  1
  Ni  Ni20  1  0.66746521  0.00080185  0.33491153  1
  Ni  Ni21  1  0.66768441  0.33377777  0.00096646  1
  Ni  Ni22  1  0.83418699  0.50086469  0.16714399  1
  Ni  Ni23  1  0.66743831  0.33401280  0.33377363  1
  Ni  Ni24  1  0.66871346  0.66726949  1.00056737  1
  Ni  Ni25  1  0.83375096  0.83401289  0.16712887  1
  Ni  Ni26  1  0.66734961  0.66726874  0.33389784  1
  Ni  Ni27  1  0.16832662  0.16744366  0.50080644  1
  Ni  Ni28  1  0.00154848  1.00062719  0.66734839  1
  Ni  Ni29  1  0.16748202  0.16743765  0.83414720  1
  Ni  Ni30  1  0.16681426  0.50009809  0.50113116  1
  Ni  Ni31  1  0.00166721  0.33339046  0.66737936  1
  Ni  Ni32  1  0.16608157  0.49937694  0.83242848  1
  Ni  Ni33  1  0.16685048  0.83454527  0.50055219  1
  Ni  Ni34  1  1.00037140  0.66800814  0.66764745  1
  Ni  Ni35  1  0.16612514  0.83527531  0.83300961  1
  Ni  Ni36  1  0.49857338  0.16640669  0.49973476  1
  Ni  Ni37  1  0.33311482  1.00050763  0.66764780  1
  Ni  Ni38  1  0.49947999  0.16644103  0.83515260  1
  Ni  Ni39  1  0.50024033  0.50106888  0.49973852  1
  Ni  Ni40  1  0.33317596  0.33346773  0.66763598  1
  Ni  Ni41  1  0.50089454  0.50041683  0.83385923  1
  Ni  Ni42  1  0.50126581  0.83453021  0.50086817  1
  Ni  Ni43  1  0.33436511  0.66805265  0.66688988  1
  Ni  Ni44  1  0.50192975  0.83520670  0.83274072  1
  Fe  Fe45  1  0.83544376  0.16681456  0.49945293  1
  Fe  Fe46  1  0.66721654  0.99926304  0.66758056  1
  Ni  Ni47  1  0.83516470  0.16642590  0.83422719  1
  Ni  Ni48  1  0.83509856  0.50266566  0.49971563  1
  Cr  Cr49  1  0.66775600  0.33452447  0.66708360  1
  Ni  Ni50  1  0.83508795  0.50168728  0.83515413  1
  Ni  Ni51  1  0.83401854  0.83306419  0.50087864  1
  Ni  Ni52  1  0.66737431  0.66809241  0.66763544  1
  Ni  Ni53  1  0.83405446  0.83381714  0.83409715  1
" 