7503,Ni92Fe2Cr4_15,-237.46111073025, 173.63773961241,Ni92Fe2Cr4,"# generated using pymatgen
 data_Cr4FeNi49
_symmetry_space_group_name_H-M   'P 1'
_cell_length_a   7.46326758
_cell_length_b   7.46326758
_cell_length_c   10.55465423
_cell_angle_alpha   90.00000000
_cell_angle_beta   90.00000000
_cell_angle_gamma   90.00000000
_symmetry_Int_Tables_number   1
_chemical_formula_structural   Cr4FeNi49
_chemical_formula_sum   'Cr4 Fe1 Ni49'
_cell_volume   587.89807229
_cell_formula_units_Z   1
loop_
 _symmetry_equiv_pos_site_id
 _symmetry_equiv_pos_as_xyz
  1  'x, y, z'
loop_
 _atom_site_type_symbol
 _atom_site_label
 _atom_site_symmetry_multiplicity
 _atom_site_fract_x
 _atom_site_fract_y
 _atom_site_fract_z
 _atom_site_occupancy
  Ni  Ni0  1  0.00035744  0.00032446  0.00069163  1
  Ni  Ni1  1  0.16851722  0.16710017  0.16654527  1
  Ni  Ni2  1  0.00244752  0.99999648  0.33346512  1
  Ni  Ni3  1  0.00110507  0.33454822  0.99966686  1
  Ni  Ni4  1  0.16709614  0.50005618  0.16659028  1
  Ni  Ni5  1  0.00165874  0.33496377  0.33453740  1
  Ni  Ni6  1  0.99924807  0.66585453  0.00108854  1
  Ni  Ni7  1  0.16699794  0.83352484  0.16725825  1
  Ni  Ni8  1  0.00030758  0.66589658  0.33271647  1
  Ni  Ni9  1  0.33458302  0.00124284  0.00109110  1
  Ni  Ni10  1  0.49861038  0.16727660  0.16686259  1
  Ni  Ni11  1  0.33367650  0.00104757  0.33373288  1
  Ni  Ni12  1  0.33357314  0.33346547  1.00004611  1
  Ni  Ni13  1  0.50027032  0.49987761  0.16688683  1
  Ni  Ni14  1  0.33349681  0.33269163  0.33356675  1
  Ni  Ni15  1  0.33457320  0.66603407  0.00203072  1
  Ni  Ni16  1  0.50021107  0.83354571  0.16690199  1
  Fe  Fe17  1  0.33367691  0.66657895  0.33318361  1
  Ni  Ni18  1  0.66587775  0.99938277  0.99967599  1
  Cr  Cr19  1  0.83293706  0.16765333  0.16804509  1
  Ni  Ni20  1  0.66459328  0.99978633  0.33350219  1
  Ni  Ni21  1  0.66604617  0.33457000  0.99981794  1
  Ni  Ni22  1  0.83339567  0.50171557  0.16714791  1
  Ni  Ni23  1  0.66556196  0.33499856  0.33457911  1
  Ni  Ni24  1  0.66696274  0.66685514  1.00004152  1
  Ni  Ni25  1  0.83357096  0.83217329  0.16647386  1
  Ni  Ni26  1  0.66677106  0.66608098  0.33272959  1
  Ni  Ni27  1  0.16717448  0.16716900  0.50045689  1
  Ni  Ni28  1  0.00038985  0.00217917  0.66663431  1
  Ni  Ni29  1  0.16701415  0.16855686  0.83373145  1
  Ni  Ni30  1  0.16633235  0.49916473  0.49959390  1
  Ni  Ni31  1  0.00032852  0.33367002  0.66658738  1
  Ni  Ni32  1  0.16643626  0.49787333  0.83453164  1
  Ni  Ni33  1  0.16762924  0.83433669  0.49920800  1
  Ni  Ni34  1  0.99869669  0.66488277  0.66693498  1
  Cr  Cr35  1  0.16664537  0.83394398  0.83393661  1
  Ni  Ni36  1  0.50019269  0.16734239  0.50015814  1
  Ni  Ni37  1  0.33463977  0.00277992  0.66583857  1
  Ni  Ni38  1  0.50039945  0.16737242  0.83374880  1
  Ni  Ni39  1  0.50099628  0.49903587  0.49933544  1
  Ni  Ni40  1  0.33355173  0.33190963  0.66714677  1
  Ni  Ni41  1  0.50094123  0.49918822  0.83453773  1
  Ni  Ni42  1  0.49957866  0.83436182  0.49955098  1
  Cr  Cr43  1  0.33479541  0.66565172  0.66515945  1
  Ni  Ni44  1  0.50244514  0.83423470  0.83423228  1
  Ni  Ni45  1  0.83339923  0.16864365  0.49990491  1
  Ni  Ni46  1  0.66578512  0.00116530  0.66770063  1
  Ni  Ni47  1  0.83336656  0.16715781  0.83326001  1
  Ni  Ni48  1  0.83336960  0.49872454  0.50014697  1
  Ni  Ni49  1  0.66684396  0.33369255  0.66640915  1
  Ni  Ni50  1  0.83333197  0.49989343  0.83343193  1
  Cr  Cr51  1  0.83353667  0.83384470  0.50081649  1
  Ni  Ni52  1  0.66757549  0.66596275  0.66803583  1
  Ni  Ni53  1  0.83215549  0.83369546  0.83377026  1
" 