148,Ni92Fe4Cr2_9,-239.300690351712, 179.834288000054,Ni92Fe4Cr2,"# generated using pymatgen
 data_CrFeNi25
_symmetry_space_group_name_H-M   'P 1'
_cell_length_a   7.45473483
_cell_length_b   7.45473483
_cell_length_c   10.54258710
_cell_angle_alpha   90.00000000
_cell_angle_beta   90.00000000
_cell_angle_gamma   90.00000000
_symmetry_Int_Tables_number   1
_chemical_formula_structural   CrFeNi25
_chemical_formula_sum   'Cr2 Fe2 Ni50'
_cell_volume   585.88394490
_cell_formula_units_Z   2
loop_
 _symmetry_equiv_pos_site_id
 _symmetry_equiv_pos_as_xyz
  1  'x, y, z'
loop_
 _atom_site_type_symbol
 _atom_site_label
 _atom_site_symmetry_multiplicity
 _atom_site_fract_x
 _atom_site_fract_y
 _atom_site_fract_z
 _atom_site_occupancy
  Ni  Ni0  1  1.00073864  0.00264387  1.00060396  1
  Ni  Ni1  1  0.16747466  0.16750644  0.16723346  1
  Ni  Ni2  1  1.00055841  0.00088263  0.33405881  1
  Ni  Ni3  1  0.00258360  0.33242907  0.00084983  1
  Ni  Ni4  1  0.16853133  0.49999353  0.16828790  1
  Ni  Ni5  1  1.00061897  0.33439373  0.33366294  1
  Cr  Cr6  1  1.00062844  0.66729164  1.00066331  1
  Ni  Ni7  1  0.16828237  0.83497763  0.16828119  1
  Ni  Ni8  1  1.00055829  0.66720131  0.33443415  1
  Ni  Ni9  1  0.33438506  0.00103894  1.00060405  1
  Ni  Ni10  1  0.50001347  0.16670873  0.16828156  1
  Ni  Ni11  1  0.33427675  0.00114645  0.33417446  1
  Ni  Ni12  1  0.33253421  0.33402692  0.00084984  1
  Ni  Ni13  1  0.50001240  0.50184725  0.16804118  1
  Ni  Ni14  1  0.33429408  0.33420772  0.33381230  1
  Ni  Ni15  1  0.33597958  0.66741176  1.00060395  1
  Ni  Ni16  1  0.50105909  0.83392203  0.16746136  1
  Ni  Ni17  1  0.33409109  0.66712301  0.33398663  1
  Ni  Ni18  1  0.66735381  0.99919849  0.00084984  1
  Ni  Ni19  1  0.83498976  0.16645952  0.16828857  1
  Ni  Ni20  1  0.66764327  0.00108607  0.33373963  1
  Cr  Cr21  1  0.66753318  0.33419640  1.00055805  1
  Ni  Ni22  1  0.83393420  0.50103998  0.16934547  1
  Ni  Ni23  1  0.66756461  0.33420787  0.33466139  1
  Ni  Ni24  1  0.66575606  0.66925661  0.00084983  1
  Ni  Ni25  1  0.83313603  0.83497844  0.16804052  1
  Ni  Ni26  1  0.66782947  0.66718318  0.33355093  1
  Ni  Ni27  1  0.16792952  0.16703180  0.50079890  1
  Ni  Ni28  1  1.00033457  0.00110659  0.66781437  1
  Ni  Ni29  1  0.16747470  0.16748742  0.83444510  1
  Ni  Ni30  1  0.16793514  0.50128683  0.50079890  1
  Ni  Ni31  1  0.00123603  0.33439376  0.66796417  1
  Ni  Ni32  1  0.16852911  0.50001367  0.83339190  1
  Ni  Ni33  1  0.16684577  0.83415894  0.50083807  1
  Ni  Ni34  1  1.00033460  0.66697742  0.66743916  1
  Ni  Ni35  1  0.16828178  0.83497705  0.83335891  1
  Ni  Ni36  1  0.50072254  0.16803628  0.50072498  1
  Ni  Ni37  1  0.33450014  0.00137149  0.66769953  1
  Ni  Ni38  1  0.49990824  0.16660346  0.83347036  1
  Ni  Ni39  1  0.50072288  0.50028759  0.50072529  1
  Ni  Ni40  1  0.33367444  0.33420756  0.66781445  1
  Ni  Ni41  1  0.49990721  0.50195249  0.83371065  1
  Fe  Fe42  1  0.50087950  0.83415355  0.50087297  1
  Ni  Ni43  1  0.33431434  0.66689800  0.66788747  1
  Ni  Ni44  1  0.50103995  0.83392241  0.83421727  1
  Ni  Ni45  1  0.83382427  0.16694627  0.50072551  1
  Ni  Ni46  1  0.66764363  1.00046769  0.66788776  1
  Ni  Ni47  1  0.83509447  0.16635484  0.83346284  1
  Ni  Ni48  1  0.83381833  0.50137205  0.50072585  1
  Fe  Fe49  1  0.66743427  0.33414888  0.66712538  1
  Ni  Ni50  1  0.83403823  0.50114398  0.83240545  1
  Ni  Ni51  1  0.83482456  0.83415898  0.50079893  1
  Ni  Ni52  1  0.66783001  0.66780037  0.66807670  1
  Ni  Ni53  1  0.83315610  0.83497658  0.83363921  1
" 