776,Ni92Fe5Cr2_5,-238.62860216192, 178.664105646266,Ni92Fe5Cr2,"# generated using pymatgen
 data_Cr3Fe2Ni49
_symmetry_space_group_name_H-M   'P 1'
_cell_length_a   7.45614849
_cell_length_b   7.45614849
_cell_length_c   10.54458632
_cell_angle_alpha   90.00000000
_cell_angle_beta   90.00000000
_cell_angle_gamma   90.00000000
_symmetry_Int_Tables_number   1
_chemical_formula_structural   Cr3Fe2Ni49
_chemical_formula_sum   'Cr3 Fe2 Ni49'
_cell_volume   586.21731636
_cell_formula_units_Z   1
loop_
 _symmetry_equiv_pos_site_id
 _symmetry_equiv_pos_as_xyz
  1  'x, y, z'
loop_
 _atom_site_type_symbol
 _atom_site_label
 _atom_site_symmetry_multiplicity
 _atom_site_fract_x
 _atom_site_fract_y
 _atom_site_fract_z
 _atom_site_occupancy
  Ni  Ni0  1  0.99995977  0.00141031  0.99989258  1
  Ni  Ni1  1  0.16643019  0.16782889  0.16823013  1
  Ni  Ni2  1  1.00014760  0.00159909  0.33484695  1
  Ni  Ni3  1  0.99907631  0.33396322  0.00090135  1
  Fe  Fe4  1  0.16617402  0.49952041  0.16830010  1
  Ni  Ni5  1  0.00108849  0.33396346  0.33364566  1
  Ni  Ni6  1  0.99988086  0.66681677  0.99981923  1
  Cr  Cr7  1  0.16625790  0.83474027  0.16718268  1
  Ni  Ni8  1  1.00006969  0.66662713  0.33491931  1
  Ni  Ni9  1  0.33408574  1.00060566  0.99906032  1
  Ni  Ni10  1  0.50124374  0.16893476  0.16823043  1
  Ni  Ni11  1  0.33408638  0.00261878  0.33548790  1
  Cr  Cr12  1  0.33423833  0.33389086  1.00071495  1
  Ni  Ni13  1  0.50235097  0.49965081  0.16823024  1
  Ni  Ni14  1  0.33416400  0.33396402  0.33426548  1
  Ni  Ni15  1  0.33416620  0.66762227  0.99898666  1
  Cr  Cr16  1  0.50160282  0.83379442  0.16718286  1
  Ni  Ni17  1  0.33416505  0.66560667  0.33555967  1
  Ni  Ni18  1  0.66814746  0.00141337  0.99992734  1
  Ni  Ni19  1  0.83451865  0.16836449  0.16715158  1
  Ni  Ni20  1  0.66795929  0.00160237  0.33481174  1
  Ni  Ni21  1  0.66894964  0.33404188  0.00097406  1
  Ni  Ni22  1  0.83341102  0.50021807  0.16715154  1
  Ni  Ni23  1  0.66693884  0.33404130  0.33357367  1
  Ni  Ni24  1  0.66814460  0.66673789  0.99989273  1
  Ni  Ni25  1  0.83451996  0.83360916  0.16739798  1
  Ni  Ni26  1  0.66795651  0.66654927  0.33484681  1
  Ni  Ni27  1  0.16734464  0.16697084  0.50034836  1
  Ni  Ni28  1  0.00123496  0.00123262  0.66745374  1
  Ni  Ni29  1  0.16650995  0.16613722  0.83361551  1
  Ni  Ni30  1  0.16734424  0.50113010  0.49986490  1
  Ni  Ni31  1  1.00032124  0.33406950  0.66764436  1
  Ni  Ni32  1  0.16650989  0.50196504  0.83409917  1
  Ni  Ni33  1  0.16762088  0.83409098  0.50061875  1
  Ni  Ni34  1  0.00124312  0.66689047  0.66745372  1
  Ni  Ni35  1  0.16786013  0.83409040  0.83442377  1
  Ni  Ni36  1  0.50055977  0.16722261  0.50009783  1
  Ni  Ni37  1  0.33406708  1.00031087  0.66764455  1
  Ni  Ni38  1  0.50139491  0.16638688  0.83386399  1
  Ni  Ni39  1  0.50081072  0.50113008  0.50034788  1
  Fe  Fe40  1  0.33406118  0.33406726  0.66707587  1
  Ni  Ni41  1  0.50164377  0.50196534  0.83361595  1
  Ni  Ni42  1  0.50028335  0.83384046  0.50036857  1
  Ni  Ni43  1  0.33405895  0.66781235  0.66764442  1
  Ni  Ni44  1  0.50004418  0.83384055  0.83467321  1
  Ni  Ni45  1  0.83428798  0.16749928  0.50036630  1
  Ni  Ni46  1  0.66689068  0.00123258  0.66745371  1
  Ni  Ni47  1  0.83428789  0.16773818  0.83467447  1
  Ni  Ni48  1  0.83403686  0.50085353  0.50061685  1
  Ni  Ni49  1  0.66781240  0.33406136  0.66764449  1
  Ni  Ni50  1  0.83403746  0.50061456  0.83442466  1
  Ni  Ni51  1  0.83428841  0.83384008  0.50002035  1
  Ni  Ni52  1  0.66689065  0.66689862  0.66745374  1
  Ni  Ni53  1  0.83428827  0.83384022  0.83477455  1
" 