68,Ni92Cr8_16,-202.82391066745, 186.880901007712,Ni92Cr8,"# generated using pymatgen
 data_Cr49Ni5
_symmetry_space_group_name_H-M   'P 1'
_cell_length_a   7.59571561
_cell_length_b   7.59571561
_cell_length_c   10.74196403
_cell_angle_alpha   90.00000000
_cell_angle_beta   90.00000000
_cell_angle_gamma   90.00000000
_symmetry_Int_Tables_number   1
_chemical_formula_structural   Cr49Ni5
_chemical_formula_sum   'Cr49 Ni5'
_cell_volume   619.75649332
_cell_formula_units_Z   1
loop_
 _symmetry_equiv_pos_site_id
 _symmetry_equiv_pos_as_xyz
  1  'x, y, z'
loop_
 _atom_site_type_symbol
 _atom_site_label
 _atom_site_symmetry_multiplicity
 _atom_site_fract_x
 _atom_site_fract_y
 _atom_site_fract_z
 _atom_site_occupancy
  Cr  Cr0  1  0.99093785  -0.00835284  -0.00751986  1
  Cr  Cr1  1  0.15832072  0.15760629  0.15843470  1
  Cr  Cr2  1  0.98988936  -0.00816380  0.32608903  1
  Cr  Cr3  1  -0.00790648  0.32554007  0.99132893  1
  Cr  Cr4  1  0.15772206  0.49117674  0.15825843  1
  Cr  Cr5  1  0.99103823  0.32376400  0.32494428  1
  Cr  Cr6  1  -0.00731490  0.65740295  0.99032774  1
  Cr  Cr7  1  0.15831307  0.82580708  0.15807507  1
  Cr  Cr8  1  0.98998290  0.65899152  0.32535037  1
  Cr  Cr9  1  0.32521787  0.99105607  -0.00811250  1
  Cr  Cr10  1  0.49082165  0.15819636  0.15748213  1
  Cr  Cr11  1  0.32468422  0.99124358  0.32438511  1
  Cr  Cr12  1  0.32407053  0.32613582  0.99073833  1
  Cr  Cr13  1  0.49315511  0.49232074  0.15982169  1
  Cr  Cr14  1  0.32467685  0.32550557  0.32474353  1
  Cr  Cr15  1  0.32406910  0.65739767  0.99073678  1
  Cr  Cr16  1  0.49197342  0.82407358  0.15863573  1
  Cr  Cr17  1  0.32633171  0.65784210  0.32415071  1
  Cr  Cr18  1  0.65843503  -0.00835214  0.99093564  1
  Cr  Cr19  1  0.82544776  0.15878715  0.15729906  1
  Cr  Cr20  1  0.66001521  0.99018657  0.32667866  1
  Cr  Cr21  1  0.65842832  0.32439062  0.99129445  1
  Cr  Cr22  1  0.82371448  0.49232739  0.15863495  1
  Cr  Cr23  1  0.65887437  0.32540858  0.32553572  1
  Cr  Cr24  1  0.65783723  0.65855188  -0.00770398  1
  Cr  Cr25  1  0.82430492  0.82347741  0.15845107  1
  Ni  Ni26  1  0.65880425  0.65909530  0.32546197  1
  Cr  Cr27  1  0.15738813  0.15779223  0.49081411  1
  Cr  Cr28  1  0.98935255  0.99018790  0.65601961  1
  Cr  Cr29  1  0.15866849  0.15907247  0.82534243  1
  Cr  Cr30  1  0.15730172  0.49196891  0.49273060  1
  Cr  Cr31  1  -0.00835134  0.32620810  0.65831953  1
  Ni  Ni32  1  0.15749664  0.49242267  0.82416810  1
  Cr  Cr33  1  0.15624467  0.82482757  0.49232283  1
  Ni  Ni34  1  -0.00818032  0.65819430  0.65849372  1
  Cr  Cr35  1  0.15751892  0.82320053  0.82419096  1
  Cr  Cr36  1  0.49209935  0.15838223  0.49212427  1
  Cr  Cr37  1  0.32540484  0.99124259  0.65831849  1
  Cr  Cr38  1  0.49135543  0.15801135  0.82498355  1
  Cr  Cr39  1  0.49278129  0.49197056  0.49002111  1
  Cr  Cr40  1  0.32425300  0.32630085  0.65911237  1
  Cr  Cr41  1  0.49089574  0.49117714  0.82474953  1
  Cr  Cr42  1  0.49324377  0.82423702  0.49061477  1
  Cr  Cr43  1  0.32260053  0.65704623  0.65970558  1
  Cr  Cr44  1  0.49136229  0.82540248  0.82534266  1
  Ni  Ni45  1  0.82476516  0.15612408  0.49143029  1
  Cr  Cr46  1  0.65983294  -0.00816431  0.65697140  1
  Cr  Cr47  1  0.82456631  0.15860177  0.82552620  1
  Cr  Cr48  1  0.82450825  0.49311030  0.49117166  1
  Cr  Cr49  1  0.65869169  0.32340768  0.65775783  1
  Cr  Cr50  1  0.82677114  0.49232549  0.82478517  1
  Ni  Ni51  1  0.82476417  0.82515302  0.49142929  1
  Cr  Cr52  1  0.65974485  0.65934759  0.65735235  1
  Cr  Cr53  1  0.82570710  0.82366514  0.82437601  1
" 