4515,Ni92Fe7Cr0_14,-239.734254264641, 184.060044695062,Ni92Fe7Cr0,"# generated using pymatgen
 data_Cr2Fe3Ni49
_symmetry_space_group_name_H-M   'P 1'
_cell_length_a   7.45243833
_cell_length_b   7.45243833
_cell_length_c   10.53933936
_cell_angle_alpha   90.00000000
_cell_angle_beta   90.00000000
_cell_angle_gamma   90.00000000
_symmetry_Int_Tables_number   1
_chemical_formula_structural   Cr2Fe3Ni49
_chemical_formula_sum   'Cr2 Fe3 Ni49'
_cell_volume   585.34265192
_cell_formula_units_Z   1
loop_
 _symmetry_equiv_pos_site_id
 _symmetry_equiv_pos_as_xyz
  1  'x, y, z'
loop_
 _atom_site_type_symbol
 _atom_site_label
 _atom_site_symmetry_multiplicity
 _atom_site_fract_x
 _atom_site_fract_y
 _atom_site_fract_z
 _atom_site_occupancy
  Ni  Ni0  1  0.00105983  1.00080282  1.00077338  1
  Ni  Ni1  1  0.16632701  0.16684944  0.16679768  1
  Ni  Ni2  1  0.00146134  1.00085841  0.33431478  1
  Ni  Ni3  1  0.00100401  0.33410291  0.00141838  1
  Ni  Ni4  1  0.16734223  0.50138807  0.16682846  1
  Ni  Ni5  1  0.99892031  0.33389439  0.33431480  1
  Ni  Ni6  1  1.00082400  0.66803488  1.00059477  1
  Ni  Ni7  1  0.16852466  0.83470297  0.16761981  1
  Ni  Ni8  1  1.00043991  0.66818781  0.33472774  1
  Ni  Ni9  1  0.33321528  0.00168185  0.00165662  1
  Fe  Fe10  1  0.50156151  0.16700758  0.16648863  1
  Ni  Ni11  1  0.33340894  0.99903512  0.33461399  1
  Ni  Ni12  1  0.33445268  0.33440611  1.00053290  1
  Ni  Ni13  1  0.50172587  0.50258361  0.16661752  1
  Cr  Cr14  1  0.33424659  0.33438098  0.33463094  1
  Ni  Ni15  1  0.33375377  0.66685292  0.00218951  1
  Ni  Ni16  1  0.50065369  0.83361856  0.16790855  1
  Ni  Ni17  1  0.33473345  0.66970749  0.33431479  1
  Ni  Ni18  1  0.66866550  0.00150207  0.00192044  1
  Ni  Ni19  1  0.83495706  0.16792159  0.16773298  1
  Fe  Fe20  1  0.66819529  1.00043304  0.33457119  1
  Ni  Ni21  1  0.66748387  0.33464159  1.00065449  1
  Ni  Ni22  1  0.83387234  0.50038552  0.16779992  1
  Ni  Ni23  1  0.66959048  0.33521904  0.33461413  1
  Ni  Ni24  1  0.66836271  0.66679719  0.00177506  1
  Ni  Ni25  1  0.83376214  0.83463330  0.16732213  1
  Ni  Ni26  1  0.66776706  0.66716645  0.33431478  1
  Ni  Ni27  1  0.16692578  0.16684980  0.50182751  1
  Ni  Ni28  1  0.00105970  0.00140471  0.66785234  1
  Ni  Ni29  1  0.16752102  0.16777137  0.83431487  1
  Ni  Ni30  1  0.16723019  0.50150019  0.50149593  1
  Ni  Ni31  1  0.00100387  0.33349974  0.66720710  1
  Ni  Ni32  1  0.16782671  0.50055257  0.83461640  1
  Ni  Ni33  1  0.16841276  0.83459086  0.50070466  1
  Fe  Fe34  1  1.00097701  0.66770764  0.66770705  1
  Ni  Ni35  1  0.16630700  0.83461627  0.83461610  1
  Ni  Ni36  1  0.50165637  0.16673897  0.50166147  1
  Ni  Ni37  1  0.33310124  0.00156781  0.66667024  1
  Ni  Ni38  1  0.50098148  0.16928859  0.83472788  1
  Ni  Ni39  1  0.50172558  0.50198448  0.50200767  1
  Ni  Ni40  1  0.33433894  0.33451992  0.66779356  1
  Ni  Ni41  1  0.50097942  0.49933927  0.83431467  1
  Ni  Ni42  1  0.50065383  0.83421632  0.50071690  1
  Ni  Ni43  1  0.33435657  0.66685284  0.66643584  1
  Cr  Cr44  1  0.50098039  0.83431108  0.83431498  1
  Ni  Ni45  1  0.83435894  0.16792151  0.50089236  1
  Ni  Ni46  1  0.66877962  0.00138787  0.66640661  1
  Ni  Ni47  1  0.83443806  0.16776924  0.83431481  1
  Ni  Ni48  1  0.83398427  0.50049735  0.50052444  1
  Ni  Ni49  1  0.66759771  0.33475557  0.66767216  1
  Ni  Ni50  1  0.83413446  0.50055278  0.83461630  1
  Ni  Ni51  1  0.83387409  0.83452130  0.50100236  1
  Ni  Ni52  1  0.66776049  0.66679711  0.66685047  1
  Ni  Ni53  1  0.83565203  0.83461820  0.83461600  1
" 