3678,Ni92Fe7Cr0_2,-239.691637498885, 183.742011050636,Ni92Fe7Cr0,"# generated using pymatgen
 data_Cr2Fe3Ni49
_symmetry_space_group_name_H-M   'P 1'
_cell_length_a   7.45264245
_cell_length_b   7.45264245
_cell_length_c   10.53962803
_cell_angle_alpha   90.00000000
_cell_angle_beta   90.00000000
_cell_angle_gamma   90.00000000
_symmetry_Int_Tables_number   1
_chemical_formula_structural   Cr2Fe3Ni49
_chemical_formula_sum   'Cr2 Fe3 Ni49'
_cell_volume   585.39074934
_cell_formula_units_Z   1
loop_
 _symmetry_equiv_pos_site_id
 _symmetry_equiv_pos_as_xyz
  1  'x, y, z'
loop_
 _atom_site_type_symbol
 _atom_site_label
 _atom_site_symmetry_multiplicity
 _atom_site_fract_x
 _atom_site_fract_y
 _atom_site_fract_z
 _atom_site_occupancy
  Ni  Ni0  1  1.00057545  1.00061042  0.00102754  1
  Fe  Fe1  1  0.16777435  0.16723171  0.16762135  1
  Ni  Ni2  1  1.00090222  1.00095311  0.33439231  1
  Ni  Ni3  1  0.00103393  0.33457012  1.00076665  1
  Ni  Ni4  1  0.16762271  0.50180504  0.16825247  1
  Ni  Ni5  1  0.00198694  0.33356226  0.33318444  1
  Ni  Ni6  1  1.00081723  0.66774853  1.00070725  1
  Ni  Ni7  1  0.16796324  0.83415913  0.16788376  1
  Ni  Ni8  1  0.00223594  0.66832113  0.33359229  1
  Ni  Ni9  1  0.33461929  0.00113053  1.00073560  1
  Ni  Ni10  1  0.50192929  0.16714566  0.16838160  1
  Ni  Ni11  1  0.33438860  1.00078368  0.33403876  1
  Ni  Ni12  1  0.33346091  0.33334280  0.00185552  1
  Ni  Ni13  1  0.50065220  0.50075869  0.16831807  1
  Ni  Ni14  1  0.33413785  0.33464745  0.33460527  1
  Ni  Ni15  1  0.33306189  0.66839055  0.00183091  1
  Ni  Ni16  1  0.50016672  0.83497043  0.16728855  1
  Ni  Ni17  1  0.33428488  0.66760208  0.33438340  1
  Ni  Ni18  1  0.66775995  1.00094247  1.00070758  1
  Ni  Ni19  1  0.83386071  0.16752546  0.16774494  1
  Ni  Ni20  1  0.66758005  1.00087834  0.33479259  1
  Ni  Ni21  1  0.66836768  0.33307578  0.00179588  1
  Ni  Ni22  1  0.83461042  0.50012478  0.16746759  1
  Ni  Ni23  1  0.66670397  0.33346863  0.33342668  1
  Ni  Ni24  1  0.66902294  0.66891063  0.00220986  1
  Ni  Ni25  1  0.83477408  0.83529978  0.16884322  1
  Ni  Ni26  1  0.66648894  0.66859234  0.33297049  1
  Ni  Ni27  1  0.16596805  0.16676957  0.50026999  1
  Ni  Ni28  1  0.00111766  0.00117384  0.66749075  1
  Ni  Ni29  1  0.16730512  0.16700108  0.83476227  1
  Ni  Ni30  1  0.16916760  0.50110004  0.50123866  1
  Ni  Ni31  1  0.00216734  0.33325925  0.66887538  1
  Ni  Ni32  1  0.16606489  0.50103339  0.83341449  1
  Ni  Ni33  1  0.16921128  0.83514199  0.50099213  1
  Ni  Ni34  1  0.00221326  0.66842673  0.66868392  1
  Ni  Ni35  1  0.16798034  0.83484128  0.83403027  1
  Fe  Fe36  1  0.49976574  0.16785121  0.50082445  1
  Ni  Ni37  1  0.33412475  0.00105098  0.66798284  1
  Ni  Ni38  1  0.50109257  0.16568715  0.83331364  1
  Ni  Ni39  1  0.49979071  0.50227431  0.50041535  1
  Ni  Ni40  1  0.33295748  0.33331991  0.66639345  1
  Cr  Cr41  1  0.50089428  0.50138547  0.83447341  1
  Ni  Ni42  1  0.49993266  0.83412367  0.50086567  1
  Ni  Ni43  1  0.33337818  0.66857855  0.66675606  1
  Ni  Ni44  1  0.50045849  0.83624897  0.83476608  1
  Ni  Ni45  1  0.83487033  0.16633927  0.50100389  1
  Ni  Ni46  1  0.66758947  1.00087697  0.66737738  1
  Ni  Ni47  1  0.83448417  0.16754187  0.83417313  1
  Cr  Cr48  1  0.83425440  0.49918524  0.50091244  1
  Ni  Ni49  1  0.66756681  0.33251079  0.66767361  1
  Ni  Ni50  1  0.83584067  0.50040682  0.83456879  1
  Fe  Fe51  1  0.83523403  0.83493029  0.50087197  1
  Ni  Ni52  1  0.66750427  0.66957532  0.66781506  1
  Ni  Ni53  1  0.83447118  0.83500263  0.83341845  1
" 