5006,Ni92Cr8_1,-202.758295027262, 185.101016466672,Ni92Cr8,"# generated using pymatgen
 data_Cr49Ni5
_symmetry_space_group_name_H-M   'P 1'
_cell_length_a   7.59603830
_cell_length_b   7.59603830
_cell_length_c   10.74242039
_cell_angle_alpha   90.00000000
_cell_angle_beta   90.00000000
_cell_angle_gamma   90.00000000
_symmetry_Int_Tables_number   1
_chemical_formula_structural   Cr49Ni5
_chemical_formula_sum   'Cr49 Ni5'
_cell_volume   619.83548551
_cell_formula_units_Z   1
loop_
 _symmetry_equiv_pos_site_id
 _symmetry_equiv_pos_as_xyz
  1  'x, y, z'
loop_
 _atom_site_type_symbol
 _atom_site_label
 _atom_site_symmetry_multiplicity
 _atom_site_fract_x
 _atom_site_fract_y
 _atom_site_fract_z
 _atom_site_occupancy
  Cr  Cr0  1  0.99069786  0.99090587  0.99103387  1
  Cr  Cr1  1  0.15766850  0.15908026  0.15894921  1
  Cr  Cr2  1  0.99087408  0.99141278  0.32560328  1
  Cr  Cr3  1  -0.00790809  0.32660766  -0.00753173  1
  Ni  Ni4  1  0.15675809  0.48971999  0.15970820  1
  Ni  Ni5  1  -0.00716100  0.32652039  0.32351182  1
  Cr  Cr6  1  -0.00729890  0.65694621  -0.00702824  1
  Cr  Cr7  1  0.15867680  0.82528759  0.15781002  1
  Cr  Cr8  1  -0.00746883  0.65621606  0.32364127  1
  Cr  Cr9  1  0.32717178  -0.00840460  0.98914814  1
  Cr  Cr10  1  0.49092261  0.15821124  0.15814598  1
  Cr  Cr11  1  0.32544909  0.99107534  0.32562079  1
  Cr  Cr12  1  0.32535945  0.32521258  0.99105546  1
  Cr  Cr13  1  0.49067672  0.49158542  0.15865560  1
  Cr  Cr14  1  0.32357327  0.32634123  0.32441129  1
  Cr  Cr15  1  0.32402929  0.65767929  -0.00726723  1
  Cr  Cr16  1  0.49147139  0.82471235  0.15846130  1
  Cr  Cr17  1  0.32324833  0.65718505  0.32355023  1
  Cr  Cr18  1  0.65678208  -0.00792184  0.99051515  1
  Cr  Cr19  1  0.82591239  0.15866426  0.15900490  1
  Cr  Cr20  1  0.65821677  -0.00832448  0.32442843  1
  Cr  Cr21  1  0.65702636  0.32328684  0.99037205  1
  Cr  Cr22  1  0.82501501  0.49050195  0.15820601  1
  Cr  Cr23  1  0.65937621  0.32463008  0.32476326  1
  Cr  Cr24  1  0.65774708  0.65911371  0.99079449  1
  Cr  Cr25  1  0.82434777  0.82526528  0.15776672  1
  Cr  Cr26  1  0.65876849  0.65824917  0.32523923  1
  Cr  Cr27  1  0.15761048  0.15864724  0.49097091  1
  Cr  Cr28  1  0.99091241  0.99133179  0.65790681  1
  Cr  Cr29  1  0.15888221  0.15802245  0.82442905  1
  Cr  Cr30  1  0.15820875  0.49027878  0.49096013  1
  Cr  Cr31  1  0.99146593  0.32503679  0.65777275  1
  Cr  Cr32  1  0.15831624  0.49139289  0.82524666  1
  Cr  Cr33  1  0.15883970  0.82559681  0.49196283  1
  Cr  Cr34  1  0.99072141  0.65817232  0.65824702  1
  Cr  Cr35  1  0.15940884  0.82509248  0.82476214  1
  Cr  Cr36  1  0.49073427  0.15861019  0.49085346  1
  Cr  Cr37  1  0.32662294  -0.00802656  0.65936813  1
  Ni  Ni38  1  0.49164873  0.15559313  0.82478528  1
  Cr  Cr39  1  0.49271932  0.49280649  0.49258618  1
  Cr  Cr40  1  0.32598309  0.32372528  0.65922386  1
  Cr  Cr41  1  0.49257298  0.49299083  0.82360815  1
  Cr  Cr42  1  0.49201157  0.82323060  0.49172486  1
  Cr  Cr43  1  0.32555912  0.65886777  0.65837327  1
  Ni  Ni44  1  0.49286248  0.82580642  0.82349337  1
  Cr  Cr45  1  0.82625431  0.15929529  0.48970458  1
  Cr  Cr46  1  0.65707767  -0.00838105  0.65918702  1
  Cr  Cr47  1  0.82517711  0.15861371  0.82561388  1
  Cr  Cr48  1  0.82360031  0.49162836  0.49282915  1
  Cr  Cr49  1  0.65713987  0.32389495  0.65914913  1
  Cr  Cr50  1  0.82362728  0.49247925  0.82350560  1
  Cr  Cr51  1  0.82356684  0.82363279  0.49264994  1
  Ni  Ni52  1  0.65653132  0.65998923  0.65959684  1
  Cr  Cr53  1  0.82351678  0.82341664  0.82442409  1
" 