3306,Ni92Cr8_14,-202.790277509774, 186.601378432689,Ni92Cr8,"# generated using pymatgen
 data_Cr49Ni5
_symmetry_space_group_name_H-M   'P 1'
_cell_length_a   7.59566333
_cell_length_b   7.59566333
_cell_length_c   10.74189009
_cell_angle_alpha   90.00000000
_cell_angle_beta   90.00000000
_cell_angle_gamma   90.00000000
_symmetry_Int_Tables_number   1
_chemical_formula_structural   Cr49Ni5
_chemical_formula_sum   'Cr49 Ni5'
_cell_volume   619.74369570
_cell_formula_units_Z   1
loop_
 _symmetry_equiv_pos_site_id
 _symmetry_equiv_pos_as_xyz
  1  'x, y, z'
loop_
 _atom_site_type_symbol
 _atom_site_label
 _atom_site_symmetry_multiplicity
 _atom_site_fract_x
 _atom_site_fract_y
 _atom_site_fract_z
 _atom_site_occupancy
  Cr  Cr0  1  -0.00827230  0.98940560  0.99078054  1
  Cr  Cr1  1  0.15929115  0.15812823  0.15861558  1
  Cr  Cr2  1  0.99097194  0.99131945  0.32487501  1
  Cr  Cr3  1  -0.00775808  0.32699702  0.99078334  1
  Cr  Cr4  1  0.15823170  0.49133367  0.15816382  1
  Cr  Cr5  1  -0.00773700  0.32632860  0.32648016  1
  Cr  Cr6  1  -0.00654650  0.65812821  0.98916402  1
  Cr  Cr7  1  0.15824994  0.82522032  0.15776208  1
  Cr  Cr8  1  -0.00789821  0.65727674  0.32589680  1
  Cr  Cr9  1  0.32593063  0.99077176  -0.00757852  1
  Ni  Ni10  1  0.49179548  0.15819036  0.15820721  1
  Cr  Cr11  1  0.32650982  -0.00759401  0.32344106  1
  Cr  Cr12  1  0.32549251  0.32554403  -0.00751196  1
  Cr  Cr13  1  0.49212623  0.49241037  0.15867850  1
  Cr  Cr14  1  0.32523344  0.32523973  0.32504385  1
  Cr  Cr15  1  0.32248252  0.65811009  0.98853795  1
  Cr  Cr16  1  0.49156325  0.82300492  0.15965105  1
  Cr  Cr17  1  0.32385074  0.65711633  0.32634530  1
  Cr  Cr18  1  0.65725441  -0.00729897  -0.00738846  1
  Cr  Cr19  1  0.82698378  0.15876541  0.15721655  1
  Cr  Cr20  1  0.65755753  -0.00779042  0.32410847  1
  Cr  Cr21  1  0.65717864  0.32316097  -0.00732263  1
  Cr  Cr22  1  0.82404396  0.49286308  0.15874095  1
  Cr  Cr23  1  0.65741507  0.32373845  0.32364835  1
  Cr  Cr24  1  0.65830985  0.65866466  -0.00808904  1
  Cr  Cr25  1  0.82458737  0.82297031  0.15970127  1
  Ni  Ni26  1  0.65790412  0.65792128  0.32486274  1
  Cr  Cr27  1  0.15814857  0.15906844  0.49116354  1
  Cr  Cr28  1  -0.00818576  0.98920653  0.65869404  1
  Cr  Cr29  1  0.15814336  0.15798905  0.82482823  1
  Ni  Ni30  1  0.15815588  0.49233859  0.49195034  1
  Cr  Cr31  1  -0.00719514  0.32805089  0.65732843  1
  Ni  Ni32  1  0.15816461  0.49329592  0.82437100  1
  Cr  Cr33  1  0.15874174  0.82550696  0.49106275  1
  Cr  Cr34  1  -0.00630173  0.65745283  0.65927339  1
  Ni  Ni35  1  0.15815850  0.82261331  0.82486520  1
  Cr  Cr36  1  0.49023706  0.15822948  0.49302506  1
  Cr  Cr37  1  0.32454637  0.98971078  0.65876122  1
  Cr  Cr38  1  0.49041160  0.15871623  0.82430953  1
  Cr  Cr39  1  0.49148834  0.49302141  0.49109478  1
  Cr  Cr40  1  0.32347456  0.32761897  0.65733315  1
  Cr  Cr41  1  0.49095697  0.49174537  0.82486119  1
  Cr  Cr42  1  0.49204666  0.82319549  0.49097400  1
  Cr  Cr43  1  0.32194945  0.65738383  0.65935768  1
  Cr  Cr44  1  0.49038568  0.82413235  0.82395080  1
  Cr  Cr45  1  0.82634513  0.15824726  0.49355094  1
  Cr  Cr46  1  0.65814508  -0.00824873  0.65817398  1
  Cr  Cr47  1  0.82612739  0.15870738  0.82391925  1
  Cr  Cr48  1  0.82391483  0.49247560  0.49009579  1
  Cr  Cr49  1  0.65812859  0.32449471  0.65857845  1
  Cr  Cr50  1  0.82450098  0.49118127  0.82579011  1
  Cr  Cr51  1  0.82378668  0.82371843  0.48999213  1
  Cr  Cr52  1  0.65867665  0.65830723  0.65781941  1
  Cr  Cr53  1  0.82511087  0.82472910  0.82487651  1
" 