3454,Ni92Fe4Cr2_1,-239.391729318399, 180.878267135448,Ni92Fe4Cr2,"# generated using pymatgen
 data_CrFeNi25
_symmetry_space_group_name_H-M   'P 1'
_cell_length_a   7.45496503
_cell_length_b   7.45496503
_cell_length_c   10.54291265
_cell_angle_alpha   90.00000000
_cell_angle_beta   90.00000000
_cell_angle_gamma   90.00000000
_symmetry_Int_Tables_number   1
_chemical_formula_structural   CrFeNi25
_chemical_formula_sum   'Cr2 Fe2 Ni50'
_cell_volume   585.93822234
_cell_formula_units_Z   2
loop_
 _symmetry_equiv_pos_site_id
 _symmetry_equiv_pos_as_xyz
  1  'x, y, z'
loop_
 _atom_site_type_symbol
 _atom_site_label
 _atom_site_symmetry_multiplicity
 _atom_site_fract_x
 _atom_site_fract_y
 _atom_site_fract_z
 _atom_site_occupancy
  Ni  Ni0  1  0.00144786  0.00254363  1.00065025  1
  Ni  Ni1  1  0.16809134  0.16831600  0.16643098  1
  Cr  Cr2  1  0.00103337  0.00129308  0.33415202  1
  Ni  Ni3  1  1.00036541  0.33173019  0.00102554  1
  Ni  Ni4  1  0.16816881  0.49988845  0.16841256  1
  Ni  Ni5  1  1.00059083  0.33521825  0.33368015  1
  Cr  Cr6  1  1.00054682  0.66792969  0.00129180  1
  Ni  Ni7  1  0.16921320  0.83421651  0.16741310  1
  Fe  Fe8  1  0.00081647  0.66576166  0.33446204  1
  Ni  Ni9  1  0.33317204  1.00072411  0.00127341  1
  Ni  Ni10  1  0.50070861  0.16735084  0.16783562  1
  Ni  Ni11  1  0.33534265  1.00032202  0.33411960  1
  Ni  Ni12  1  0.33446652  0.33374286  0.00108433  1
  Ni  Ni13  1  0.50078794  0.50101534  0.16723782  1
  Ni  Ni14  1  0.33401292  0.33454304  0.33387002  1
  Ni  Ni15  1  0.33629244  0.66796235  0.00083808  1
  Ni  Ni16  1  0.50071260  0.83406788  0.16754092  1
  Ni  Ni17  1  0.33492568  0.66756180  0.33368114  1
  Fe  Fe18  1  0.66719724  0.00112959  0.00085543  1
  Ni  Ni19  1  0.83362300  0.16838471  0.16649273  1
  Ni  Ni20  1  0.66625632  1.00032288  0.33363728  1
  Ni  Ni21  1  0.66760239  0.33484796  0.00108514  1
  Ni  Ni22  1  0.83347806  0.49989621  0.16846365  1
  Ni  Ni23  1  0.66782620  0.33479075  0.33411874  1
  Ni  Ni24  1  0.66578117  0.66687528  0.00083804  1
  Ni  Ni25  1  0.83249863  0.83414648  0.16747209  1
  Ni  Ni26  1  0.66692490  0.66731265  0.33393068  1
  Ni  Ni27  1  0.16831283  0.16830649  0.50165450  1
  Ni  Ni28  1  0.00083935  1.00061537  0.66785165  1
  Ni  Ni29  1  0.16726084  0.16749880  0.83435108  1
  Ni  Ni30  1  0.16735346  0.50070551  0.50067306  1
  Ni  Ni31  1  1.00059128  0.33389460  0.66772582  1
  Ni  Ni32  1  0.16828152  0.49999305  0.83334820  1
  Ni  Ni33  1  0.16840901  0.83341106  0.50172589  1
  Ni  Ni34  1  1.00059162  0.66791824  0.66686679  1
  Ni  Ni35  1  0.16828999  0.83493653  0.83330045  1
  Ni  Ni36  1  0.50082179  0.16723768  0.50055132  1
  Ni  Ni37  1  0.33363487  1.00055182  0.66704114  1
  Ni  Ni38  1  0.50070043  0.16757423  0.83403483  1
  Ni  Ni39  1  0.50080050  0.50080088  0.50084276  1
  Ni  Ni40  1  0.33406486  0.33414457  0.66747718  1
  Ni  Ni41  1  0.50078885  0.50102758  0.83435103  1
  Ni  Ni42  1  0.50082133  0.83439176  0.50060236  1
  Ni  Ni43  1  0.33412952  0.66773552  0.66791290  1
  Ni  Ni44  1  0.50070457  0.83383280  0.83427833  1
  Ni  Ni45  1  0.83329747  0.16828282  0.50165254  1
  Ni  Ni46  1  0.66795708  1.00055240  0.66752297  1
  Ni  Ni47  1  0.83446467  0.16758088  0.83428051  1
  Ni  Ni48  1  0.83427906  0.50070795  0.50067080  1
  Ni  Ni49  1  0.66777495  0.33439153  0.66722931  1
  Ni  Ni50  1  0.83336271  0.49999799  0.83329985  1
  Ni  Ni51  1  0.83320384  0.83343224  0.50172141  1
  Ni  Ni52  1  0.66770964  0.66748783  0.66766511  1
  Ni  Ni53  1  0.83343063  0.83485571  0.83323511  1
" 