3266,Ni92Fe2Cr4_7,-237.446341446914, 172.78112189095,Ni92Fe2Cr4,"# generated using pymatgen
 data_Cr4FeNi49
_symmetry_space_group_name_H-M   'P 1'
_cell_length_a   7.46285464
_cell_length_b   7.46285464
_cell_length_c   10.55407025
_cell_angle_alpha   90.00000000
_cell_angle_beta   90.00000000
_cell_angle_gamma   90.00000000
_symmetry_Int_Tables_number   1
_chemical_formula_structural   Cr4FeNi49
_chemical_formula_sum   'Cr4 Fe1 Ni49'
_cell_volume   587.80049247
_cell_formula_units_Z   1
loop_
 _symmetry_equiv_pos_site_id
 _symmetry_equiv_pos_as_xyz
  1  'x, y, z'
loop_
 _atom_site_type_symbol
 _atom_site_label
 _atom_site_symmetry_multiplicity
 _atom_site_fract_x
 _atom_site_fract_y
 _atom_site_fract_z
 _atom_site_occupancy
  Ni  Ni0  1  0.00154033  0.00109972  0.00179493  1
  Ni  Ni1  1  0.16563919  0.16791569  0.16612115  1
  Ni  Ni2  1  0.99906940  1.00013719  0.33319248  1
  Ni  Ni3  1  1.00012210  0.33393767  0.99960590  1
  Ni  Ni4  1  0.16647817  0.50047950  0.16722923  1
  Ni  Ni5  1  0.99999378  0.33388292  0.33404950  1
  Ni  Ni6  1  0.00141587  0.66570326  0.00106580  1
  Ni  Ni7  1  0.16677580  0.83246137  0.16577289  1
  Ni  Ni8  1  0.00045054  0.66672571  0.33361378  1
  Ni  Ni9  1  0.33348064  1.00005037  0.99985773  1
  Ni  Ni10  1  0.50153097  0.16744963  0.16617606  1
  Cr  Cr11  1  0.33307048  0.99977642  0.33365794  1
  Ni  Ni12  1  0.33377217  0.33392944  0.00087448  1
  Ni  Ni13  1  0.50052793  0.50070413  0.16722138  1
  Ni  Ni14  1  0.33376517  0.33526941  0.33322139  1
  Ni  Ni15  1  0.33363444  0.66687182  0.00050561  1
  Ni  Ni16  1  0.50065125  0.83271209  0.16579397  1
  Ni  Ni17  1  0.33361241  0.66562444  0.33340899  1
  Ni  Ni18  1  0.66581884  0.00130298  0.00111553  1
  Ni  Ni19  1  0.83362171  0.16773673  0.16691186  1
  Ni  Ni20  1  0.66811912  0.00031435  0.33388804  1
  Ni  Ni21  1  0.66691689  0.33409591  1.00026163  1
  Ni  Ni22  1  0.83382839  0.49940783  0.16671161  1
  Ni  Ni23  1  0.66706431  0.33408257  0.33334028  1
  Ni  Ni24  1  0.66586155  0.66542663  0.00099018  1
  Fe  Fe25  1  0.83335992  0.83321189  0.16715798  1
  Ni  Ni26  1  0.66679559  0.66637857  0.33360812  1
  Ni  Ni27  1  0.16690714  0.16902244  0.49994031  1
  Cr  Cr28  1  0.00111211  0.00140296  0.66565057  1
  Ni  Ni29  1  0.16791860  0.16806841  0.83476657  1
  Ni  Ni30  1  0.16693706  0.50027230  0.49993185  1
  Ni  Ni31  1  0.00192180  0.33551391  0.66724361  1
  Ni  Ni32  1  0.16710598  0.50025876  0.83367573  1
  Ni  Ni33  1  0.16706371  0.83153750  0.50048160  1
  Ni  Ni34  1  0.00113265  0.66468960  0.66611111  1
  Ni  Ni35  1  0.16933013  0.83251811  0.83454893  1
  Ni  Ni36  1  0.50031140  0.16702835  0.49998406  1
  Ni  Ni37  1  0.33483555  1.00025217  0.66729583  1
  Ni  Ni38  1  0.49929740  0.16601126  0.83476868  1
  Ni  Ni39  1  0.49932838  0.50128824  0.49875395  1
  Ni  Ni40  1  0.33259292  0.33388483  0.66672821  1
  Ni  Ni41  1  0.49911223  0.50134922  0.83494606  1
  Ni  Ni42  1  0.50118243  0.83256031  0.50168755  1
  Ni  Ni43  1  0.33363924  0.66667024  0.66691690  1
  Ni  Ni44  1  0.49877123  0.83352083  0.83331349  1
  Ni  Ni45  1  0.83355379  0.16723989  0.49842617  1
  Ni  Ni46  1  0.66456127  0.99973336  0.66574234  1
  Ni  Ni47  1  0.83367576  0.16827801  0.83560164  1
  Ni  Ni48  1  0.83463370  0.50115153  0.49976082  1
  Cr  Cr49  1  0.66756373  0.33423472  0.66771972  1
  Ni  Ni50  1  0.83475069  0.49981104  0.83446587  1
  Ni  Ni51  1  0.83257859  0.83253761  0.49835660  1
  Ni  Ni52  1  0.66608891  0.66707662  0.66612228  1
  Cr  Cr53  1  0.83234647  0.83256935  0.83508091  1
" 