5505,Ni92Fe2Cr4_1,-237.515823376674, 173.520307409184,Ni92Fe2Cr4,"# generated using pymatgen
 data_Cr4FeNi49
_symmetry_space_group_name_H-M   'P 1'
_cell_length_a   7.46252505
_cell_length_b   7.46252505
_cell_length_c   10.55360413
_cell_angle_alpha   90.00000000
_cell_angle_beta   90.00000000
_cell_angle_gamma   90.00000000
_symmetry_Int_Tables_number   1
_chemical_formula_structural   Cr4FeNi49
_chemical_formula_sum   'Cr4 Fe1 Ni49'
_cell_volume   587.72261603
_cell_formula_units_Z   1
loop_
 _symmetry_equiv_pos_site_id
 _symmetry_equiv_pos_as_xyz
  1  'x, y, z'
loop_
 _atom_site_type_symbol
 _atom_site_label
 _atom_site_symmetry_multiplicity
 _atom_site_fract_x
 _atom_site_fract_y
 _atom_site_fract_z
 _atom_site_occupancy
  Ni  Ni0  1  0.00070322  0.00031204  0.99981012  1
  Ni  Ni1  1  0.16664320  0.16520061  0.16709821  1
  Ni  Ni2  1  0.00070167  1.00029756  0.33403374  1
  Ni  Ni3  1  0.99944794  0.33268193  0.99971345  1
  Cr  Cr4  1  0.16705586  0.50036815  0.16731999  1
  Ni  Ni5  1  0.00105689  0.33262002  0.33458408  1
  Ni  Ni6  1  0.99941541  0.66792252  0.99922133  1
  Ni  Ni7  1  0.16666310  0.83532654  0.16687549  1
  Ni  Ni8  1  0.99946521  0.66800147  0.33481464  1
  Ni  Ni9  1  0.33346802  0.00030380  0.00049897  1
  Ni  Ni10  1  0.49959663  0.16587247  0.16626558  1
  Ni  Ni11  1  0.33337031  1.00028316  0.33357013  1
  Ni  Ni12  1  0.33422270  0.33219096  0.99934113  1
  Ni  Ni13  1  0.50078829  0.50132897  0.16582882  1
  Ni  Ni14  1  0.33167449  0.33119205  0.33393325  1
  Ni  Ni15  1  0.33426499  0.66841486  0.99888428  1
  Ni  Ni16  1  0.50051559  0.83371779  0.16732620  1
  Ni  Ni17  1  0.33318106  0.66944816  0.33411584  1
  Ni  Ni18  1  0.66675067  0.00030416  1.00027820  1
  Ni  Ni19  1  0.83460641  0.16548300  0.16607486  1
  Ni  Ni20  1  0.66683216  0.99870925  0.33402424  1
  Ni  Ni21  1  0.66722578  0.33343069  0.99974838  1
  Ni  Ni22  1  0.83301373  0.50131965  0.16626426  1
  Cr  Cr23  1  0.66831046  0.33235393  0.33293548  1
  Ni  Ni24  1  0.66722172  0.66716682  0.00059389  1
  Ni  Ni25  1  0.83371341  0.83414677  0.16710734  1
  Ni  Ni26  1  0.66826897  0.66972041  0.33264033  1
  Ni  Ni27  1  0.16689053  0.16696444  0.49982868  1
  Fe  Fe28  1  0.00102582  0.00043605  0.66719880  1
  Ni  Ni29  1  0.16691214  0.16706307  0.83398777  1
  Ni  Ni30  1  0.16531317  0.50031703  0.50044549  1
  Ni  Ni31  1  0.00049236  0.33431176  0.66661419  1
  Ni  Ni32  1  0.16697560  0.50020668  0.83310842  1
  Ni  Ni33  1  0.16687058  0.83366781  0.50029982  1
  Ni  Ni34  1  0.00202018  0.66630744  0.66682776  1
  Ni  Ni35  1  0.16688338  0.83365647  0.83374655  1
  Ni  Ni36  1  0.49951756  0.16419654  0.50127814  1
  Ni  Ni37  1  0.33404469  0.00030523  0.66683058  1
  Ni  Ni38  1  0.50050437  0.16679434  0.83333224  1
  Cr  Cr39  1  0.49795337  0.50028691  0.50034669  1
  Ni  Ni40  1  0.33189390  0.33189279  0.66768770  1
  Ni  Ni41  1  0.49922525  0.49926570  0.83474239  1
  Ni  Ni42  1  0.49953341  0.83644647  0.49920212  1
  Ni  Ni43  1  0.33039514  0.66865595  0.66786177  1
  Ni  Ni44  1  0.49963638  0.83484105  0.83437346  1
  Ni  Ni45  1  0.83457391  0.16562185  0.50137063  1
  Ni  Ni46  1  0.66616977  0.00185044  0.66659932  1
  Ni  Ni47  1  0.83351227  0.16670257  0.83349974  1
  Ni  Ni48  1  0.83724299  0.50030478  0.49998528  1
  Ni  Ni49  1  0.66851731  0.33066513  0.66812309  1
  Ni  Ni50  1  0.83470080  0.49933727  0.83461932  1
  Ni  Ni51  1  0.83452800  0.83495987  0.49931553  1
  Cr  Cr52  1  0.66846622  0.66831244  0.66773872  1
  Ni  Ni53  1  0.83438600  0.83487518  0.83449655  1
" 