5218,Ni92Fe5Cr2_10,-238.572354814253, 179.12067004965,Ni92Fe5Cr2,"# generated using pymatgen
 data_Cr3Fe2Ni49
_symmetry_space_group_name_H-M   'P 1'
_cell_length_a   7.45725275
_cell_length_b   7.45725275
_cell_length_c   10.54614798
_cell_angle_alpha   90.00000000
_cell_angle_beta   90.00000000
_cell_angle_gamma   90.00000000
_symmetry_Int_Tables_number   1
_chemical_formula_structural   Cr3Fe2Ni49
_chemical_formula_sum   'Cr3 Fe2 Ni49'
_cell_volume   586.47781252
_cell_formula_units_Z   1
loop_
 _symmetry_equiv_pos_site_id
 _symmetry_equiv_pos_as_xyz
  1  'x, y, z'
loop_
 _atom_site_type_symbol
 _atom_site_label
 _atom_site_symmetry_multiplicity
 _atom_site_fract_x
 _atom_site_fract_y
 _atom_site_fract_z
 _atom_site_occupancy
  Ni  Ni0  1  0.00190654  0.99992979  0.99929957  1
  Ni  Ni1  1  0.16831888  0.16728411  0.16780975  1
  Ni  Ni2  1  0.00197422  0.00141998  0.33499697  1
  Cr  Cr3  1  0.00198007  0.33354372  0.00117603  1
  Ni  Ni4  1  0.16941346  0.50145277  0.16815343  1
  Ni  Ni5  1  0.00073290  0.33377038  0.33380168  1
  Ni  Ni6  1  0.00196237  0.66809144  0.99977039  1
  Ni  Ni7  1  0.16850767  0.83315977  0.16690397  1
  Ni  Ni8  1  0.00198187  0.66672962  0.33484018  1
  Ni  Ni9  1  0.33398740  1.00028591  0.00126603  1
  Ni  Ni10  1  0.49995218  0.16706637  0.16811996  1
  Ni  Ni11  1  0.33382414  1.00018990  0.33371033  1
  Ni  Ni12  1  0.33398918  0.33398255  1.00045062  1
  Ni  Ni13  1  0.49846621  0.50143839  0.16730450  1
  Ni  Ni14  1  0.33416113  0.33413269  0.33377407  1
  Ni  Ni15  1  0.33394101  0.66783210  0.00068096  1
  Ni  Ni16  1  0.49976319  0.83348340  0.16730294  1
  Ni  Ni17  1  0.33417023  0.66762546  0.33419250  1
  Ni  Ni18  1  0.66610457  1.00006159  0.99977378  1
  Ni  Ni19  1  0.83372832  0.16612317  0.16903914  1
  Ni  Ni20  1  0.66619456  0.00141132  0.33498927  1
  Cr  Cr21  1  0.66601835  0.33371088  0.00075098  1
  Fe  Fe22  1  0.83392193  0.50126097  0.16908313  1
  Ni  Ni23  1  0.66705244  0.33411320  0.33381588  1
  Ni  Ni24  1  0.66592866  0.66819949  0.99961212  1
  Cr  Cr25  1  0.83381938  0.83470819  0.16675805  1
  Ni  Ni26  1  0.66581734  0.66639564  0.33484503  1
  Ni  Ni27  1  0.16758980  0.16811645  0.50075819  1
  Ni  Ni28  1  0.00112910  1.00044468  0.66777139  1
  Ni  Ni29  1  0.16891534  0.16729886  0.83342854  1
  Ni  Ni30  1  0.16760111  0.50035043  0.50077057  1
  Ni  Ni31  1  1.00036890  0.33415446  0.66719492  1
  Ni  Ni32  1  0.16782518  0.50141351  0.83313605  1
  Ni  Ni33  1  0.16722430  0.83350736  0.50047937  1
  Ni  Ni34  1  0.00072615  0.66738808  0.66728607  1
  Ni  Ni35  1  0.16766717  0.83322234  0.83459302  1
  Ni  Ni36  1  0.50062206  0.16781283  0.50036768  1
  Ni  Ni37  1  0.33396877  1.00011441  0.66698123  1
  Ni  Ni38  1  0.49958326  0.16591851  0.83339543  1
  Ni  Ni39  1  0.50029558  0.50036318  0.50156167  1
  Ni  Ni40  1  0.33391447  0.33375193  0.66771984  1
  Fe  Fe41  1  0.49953616  0.50155833  0.83281770  1
  Ni  Ni42  1  0.50100360  0.83382715  0.50006839  1
  Ni  Ni43  1  0.33388800  0.66817891  0.66711140  1
  Ni  Ni44  1  0.50085099  0.83461726  0.83459966  1
  Ni  Ni45  1  0.83375540  0.16739856  0.50089227  1
  Ni  Ni46  1  0.66686921  1.00048162  0.66730877  1
  Ni  Ni47  1  0.83341773  0.16579283  0.83221254  1
  Ni  Ni48  1  0.83403932  0.50072284  0.49973763  1
  Ni  Ni49  1  0.66766698  0.33408231  0.66728169  1
  Ni  Ni50  1  0.83489743  0.50273354  0.83304927  1
  Ni  Ni51  1  0.83375223  0.83384532  0.50129328  1
  Ni  Ni52  1  0.66731095  0.66746679  0.66738455  1
  Ni  Ni53  1  0.83342623  0.83349833  0.83404124  1
" 