2661,Ni92Fe7Cr0_6,-239.74780914036, 183.985110581413,Ni92Fe7Cr0,"# generated using pymatgen
 data_Cr2Fe3Ni49
_symmetry_space_group_name_H-M   'P 1'
_cell_length_a   7.45364542
_cell_length_b   7.45364542
_cell_length_c   10.54104644
_cell_angle_alpha   90.00000000
_cell_angle_beta   90.00000000
_cell_angle_gamma   90.00000000
_symmetry_Int_Tables_number   1
_chemical_formula_structural   Cr2Fe3Ni49
_chemical_formula_sum   'Cr2 Fe3 Ni49'
_cell_volume   585.62712465
_cell_formula_units_Z   1
loop_
 _symmetry_equiv_pos_site_id
 _symmetry_equiv_pos_as_xyz
  1  'x, y, z'
loop_
 _atom_site_type_symbol
 _atom_site_label
 _atom_site_symmetry_multiplicity
 _atom_site_fract_x
 _atom_site_fract_y
 _atom_site_fract_z
 _atom_site_occupancy
  Ni  Ni0  1  0.99974668  0.00218528  1.00012579  1
  Ni  Ni1  1  0.16811040  0.16920123  0.16712019  1
  Ni  Ni2  1  0.00147089  0.00210307  0.33527888  1
  Ni  Ni3  1  0.00112883  0.33442579  0.00090386  1
  Ni  Ni4  1  0.16773244  0.49949965  0.16728317  1
  Ni  Ni5  1  0.00097824  0.33427152  0.33405922  1
  Ni  Ni6  1  1.00010239  0.66624903  1.00013414  1
  Cr  Cr7  1  0.16731832  0.83406612  0.16740533  1
  Ni  Ni8  1  1.00005238  0.66633664  0.33526514  1
  Ni  Ni9  1  0.33526517  0.00194578  1.00032052  1
  Ni  Ni10  1  0.49971025  0.16859153  0.16647619  1
  Ni  Ni11  1  0.33362401  0.00174661  0.33523750  1
  Ni  Ni12  1  0.33391380  0.33441941  0.00119489  1
  Ni  Ni13  1  0.50086621  0.50087987  0.16676481  1
  Ni  Ni14  1  0.33415988  0.33458954  0.33406184  1
  Ni  Ni15  1  0.33504379  0.66626191  0.99966922  1
  Ni  Ni16  1  0.50141223  0.83323929  0.16608219  1
  Ni  Ni17  1  0.33536491  0.66637626  0.33522635  1
  Ni  Ni18  1  0.66759241  1.00088712  0.00098814  1
  Ni  Ni19  1  0.83488498  0.16860177  0.16564084  1
  Cr  Cr20  1  0.66754741  1.00082722  0.33407041  1
  Ni  Ni21  1  0.66779370  0.33409718  0.00098684  1
  Ni  Ni22  1  0.83410049  0.50125297  0.16715431  1
  Ni  Ni23  1  0.66755647  0.33600403  0.33430823  1
  Ni  Ni24  1  0.66770333  0.66760578  0.00141511  1
  Ni  Ni25  1  0.83340464  0.83284903  0.16646162  1
  Ni  Ni26  1  0.66725012  0.66586675  0.33406313  1
  Ni  Ni27  1  0.16810116  0.16764948  0.50109513  1
  Ni  Ni28  1  1.00071592  0.00116741  0.66738612  1
  Ni  Ni29  1  0.16869204  0.16852651  0.83443471  1
  Ni  Ni30  1  0.16773944  0.50103625  0.50094743  1
  Ni  Ni31  1  0.00128213  0.33442538  0.66771865  1
  Ni  Ni32  1  0.16764163  0.50092251  0.83443745  1
  Ni  Ni33  1  0.16773791  0.83400675  0.50194487  1
  Ni  Ni34  1  0.00103437  0.66724868  0.66740481  1
  Fe  Fe35  1  0.16593115  0.83528536  0.83378646  1
  Ni  Ni36  1  0.49971048  0.16862247  0.50205865  1
  Ni  Ni37  1  0.33423113  0.00109500  0.66716982  1
  Ni  Ni38  1  0.50051263  0.16687136  0.83418637  1
  Ni  Ni39  1  0.50088708  0.50087517  0.50175524  1
  Ni  Ni40  1  0.33375787  0.33440991  0.66741347  1
  Fe  Fe41  1  0.50220944  0.49893717  0.83407896  1
  Ni  Ni42  1  0.49993961  0.83322708  0.50217938  1
  Ni  Ni43  1  0.33394389  0.66719467  0.66776346  1
  Fe  Fe44  1  0.50161239  0.83469852  0.83411240  1
  Ni  Ni45  1  0.83489486  0.16862999  0.50287611  1
  Ni  Ni46  1  0.66764251  1.00078648  0.66758458  1
  Ni  Ni47  1  0.83348677  0.16724351  0.83418749  1
  Ni  Ni48  1  0.83406981  0.50123151  0.50136273  1
  Ni  Ni49  1  0.66781001  0.33408203  0.66739236  1
  Ni  Ni50  1  0.83495663  0.50181462  0.83418160  1
  Ni  Ni51  1  0.83502504  0.83285422  0.50180427  1
  Ni  Ni52  1  0.66776029  0.66769306  0.66714672  1
  Ni  Ni53  1  0.83338741  0.83363242  0.83444089  1
" 