6781,Ni92Fe7Cr0_15,-239.774631088875, 183.564436589672,Ni92Fe7Cr0,"# generated using pymatgen
 data_Cr2Fe3Ni49
_symmetry_space_group_name_H-M   'P 1'
_cell_length_a   7.45020602
_cell_length_b   7.45020602
_cell_length_c   10.53618239
_cell_angle_alpha   90.00000000
_cell_angle_beta   90.00000000
_cell_angle_gamma   90.00000000
_symmetry_Int_Tables_number   1
_chemical_formula_structural   Cr2Fe3Ni49
_chemical_formula_sum   'Cr2 Fe3 Ni49'
_cell_volume   584.81680637
_cell_formula_units_Z   1
loop_
 _symmetry_equiv_pos_site_id
 _symmetry_equiv_pos_as_xyz
  1  'x, y, z'
loop_
 _atom_site_type_symbol
 _atom_site_label
 _atom_site_symmetry_multiplicity
 _atom_site_fract_x
 _atom_site_fract_y
 _atom_site_fract_z
 _atom_site_occupancy
  Ni  Ni0  1  1.00108042  0.00137693  0.00182737  1
  Ni  Ni1  1  0.16895116  0.16740172  0.16707471  1
  Fe  Fe2  1  1.00087833  0.99992002  0.33446361  1
  Ni  Ni3  1  0.00114586  0.33450505  1.00109057  1
  Ni  Ni4  1  0.16779101  0.50110020  0.16645216  1
  Cr  Cr5  1  0.00116080  0.33506489  0.33446361  1
  Ni  Ni6  1  0.00124394  0.66751163  0.00162142  1
  Ni  Ni7  1  0.16717451  0.83488655  0.16667724  1
  Ni  Ni8  1  0.99968947  0.66872692  0.33446361  1
  Ni  Ni9  1  0.33451295  1.00105460  0.00146015  1
  Ni  Ni10  1  0.50074614  0.16780736  0.16801367  1
  Ni  Ni11  1  0.33509753  0.00245628  0.33446361  1
  Ni  Ni12  1  0.33402043  0.33439252  0.00183352  1
  Ni  Ni13  1  0.50163544  0.50042633  0.16676458  1
  Ni  Ni14  1  0.33555197  0.33264749  0.33446361  1
  Ni  Ni15  1  0.33424061  0.66794419  0.00140063  1
  Ni  Ni16  1  0.50184333  0.83515585  0.16713580  1
  Cr  Cr17  1  0.33420682  0.66798538  0.33446361  1
  Ni  Ni18  1  0.66779266  0.00115265  0.00124475  1
  Ni  Ni19  1  0.83369340  0.16719132  0.16665917  1
  Ni  Ni20  1  0.66726426  0.00113399  0.33446361  1
  Ni  Ni21  1  0.66822838  0.33422912  0.00163849  1
  Ni  Ni22  1  0.83396499  0.50219852  0.16712812  1
  Ni  Ni23  1  0.66682798  0.33398749  0.33446361  1
  Ni  Ni24  1  0.66790589  0.66800509  0.00167153  1
  Ni  Ni25  1  0.83437194  0.83399841  0.16796190  1
  Ni  Ni26  1  0.66949642  0.66826600  0.33446361  1
  Ni  Ni27  1  0.16895116  0.16740172  0.50185251  1
  Ni  Ni28  1  1.00108042  0.00137693  0.66709985  1
  Ni  Ni29  1  0.16816706  0.16871064  0.83446361  1
  Ni  Ni30  1  0.16779101  0.50110020  0.50247506  1
  Ni  Ni31  1  0.00114586  0.33450505  0.66783665  1
  Ni  Ni32  1  0.16727074  0.50059989  0.83446361  1
  Ni  Ni33  1  0.16717451  0.83488655  0.50224998  1
  Ni  Ni34  1  0.00124394  0.66751163  0.66730581  1
  Fe  Fe35  1  0.16738002  0.83487469  0.83446361  1
  Ni  Ni36  1  0.50074614  0.16780736  0.50091355  1
  Ni  Ni37  1  0.33451295  1.00105460  0.66746707  1
  Ni  Ni38  1  0.50075364  0.16688741  0.83446361  1
  Ni  Ni39  1  0.50163544  0.50042633  0.50216264  1
  Ni  Ni40  1  0.33402043  0.33439252  0.66709370  1
  Fe  Fe41  1  0.50153741  0.50071736  0.83446361  1
  Ni  Ni42  1  0.50184333  0.83515585  0.50179142  1
  Ni  Ni43  1  0.33424061  0.66794419  0.66752659  1
  Ni  Ni44  1  0.50166041  0.83498957  0.83446361  1
  Ni  Ni45  1  0.83369340  0.16719132  0.50226805  1
  Ni  Ni46  1  0.66779266  0.00115265  0.66768247  1
  Ni  Ni47  1  0.83447019  0.16779084  0.83446361  1
  Ni  Ni48  1  0.83396499  0.50219852  0.50179910  1
  Ni  Ni49  1  0.66822838  0.33422912  0.66728873  1
  Ni  Ni50  1  0.83537949  0.50150669  0.83446361  1
  Ni  Ni51  1  0.83437194  0.83399841  0.50096532  1
  Ni  Ni52  1  0.66790589  0.66800509  0.66725569  1
  Ni  Ni53  1  0.83355628  0.83409330  0.83446361  1
" 