3993,Ni92Fe2Cr4_5,-237.474140753284, 173.852294688541,Ni92Fe2Cr4,"# generated using pymatgen
 data_Cr4FeNi49
_symmetry_space_group_name_H-M   'P 1'
_cell_length_a   7.46149634
_cell_length_b   7.46149634
_cell_length_c   10.55214931
_cell_angle_alpha   90.00000000
_cell_angle_beta   90.00000000
_cell_angle_gamma   90.00000000
_symmetry_Int_Tables_number   1
_chemical_formula_structural   Cr4FeNi49
_chemical_formula_sum   'Cr4 Fe1 Ni49'
_cell_volume   587.47959642
_cell_formula_units_Z   1
loop_
 _symmetry_equiv_pos_site_id
 _symmetry_equiv_pos_as_xyz
  1  'x, y, z'
loop_
 _atom_site_type_symbol
 _atom_site_label
 _atom_site_symmetry_multiplicity
 _atom_site_fract_x
 _atom_site_fract_y
 _atom_site_fract_z
 _atom_site_occupancy
  Ni  Ni0  1  0.99951294  0.00112497  0.99951908  1
  Cr  Cr1  1  0.16726598  0.16705955  0.16682633  1
  Ni  Ni2  1  1.00031927  1.00031894  0.33536074  1
  Ni  Ni3  1  0.99951458  0.33454685  0.99949350  1
  Ni  Ni4  1  0.16652915  0.50218591  0.16680253  1
  Ni  Ni5  1  0.99928582  0.33454668  0.33434926  1
  Ni  Ni6  1  0.00037372  0.66544537  1.00035036  1
  Ni  Ni7  1  0.16919472  0.83154550  0.16717188  1
  Ni  Ni8  1  0.00117835  0.66625070  0.33452858  1
  Ni  Ni9  1  0.33535201  1.00008660  0.00052988  1
  Ni  Ni10  1  0.50190098  0.16647510  0.16698212  1
  Ni  Ni11  1  0.33454624  0.99928208  0.33434908  1
  Ni  Ni12  1  0.33422529  0.33445837  0.99917697  1
  Fe  Fe13  1  0.50037784  0.50036255  0.16704418  1
  Ni  Ni14  1  0.33445411  0.33445793  0.33466602  1
  Ni  Ni15  1  0.33440512  0.66657002  0.00130638  1
  Ni  Ni16  1  0.49856205  0.83421463  0.16680254  1
  Ni  Ni17  1  0.33359865  0.66737623  0.33357355  1
  Ni  Ni18  1  0.66625017  0.00094550  0.99931357  1
  Ni  Ni19  1  0.83159876  0.16914147  0.16698163  1
  Ni  Ni20  1  0.66625026  0.00117456  0.33452874  1
  Ni  Ni21  1  0.66737600  0.33359898  0.00050420  1
  Ni  Ni22  1  0.83426867  0.49884693  0.16698214  1
  Ni  Ni23  1  0.66737636  0.33359848  0.33357402  1
  Ni  Ni24  1  0.66633860  0.66657159  0.99936588  1
  Cr  Cr25  1  0.83368615  0.83347976  0.16682645  1
  Ni  Ni26  1  0.66633897  0.66634280  0.33447662  1
  Ni  Ni27  1  0.16720045  0.16696964  0.50046672  1
  Ni  Ni28  1  0.99969865  0.00131039  0.66623610  1
  Ni  Ni29  1  0.16720043  0.16891356  0.83384666  1
  Ni  Ni30  1  0.16696419  0.50065798  0.50056913  1
  Ni  Ni31  1  0.00073346  0.33357030  0.66727355  1
  Ni  Ni32  1  0.16696391  0.49871427  0.83374439  1
  Ni  Ni33  1  0.16702270  0.83348880  0.49978470  1
  Ni  Ni34  1  0.00128341  0.66623513  0.66623592  1
  Cr  Cr35  1  0.16698644  0.83354855  0.83407490  1
  Ni  Ni36  1  0.50037361  0.16691074  0.50038971  1
  Ni  Ni37  1  0.33437611  0.00130668  0.66623618  1
  Ni  Ni38  1  0.50055921  0.16709648  0.83374406  1
  Ni  Ni39  1  0.49951314  0.49962009  0.49906896  1
  Ni  Ni40  1  0.33334459  0.33357706  0.66727353  1
  Ni  Ni41  1  0.49969959  0.49943436  0.83506461  1
  Ni  Ni42  1  0.49951382  0.83458499  0.49953206  1
  Ni  Ni43  1  0.33279800  0.66623205  0.66623592  1
  Ni  Ni44  1  0.50145847  0.83458555  0.83478133  1
  Ni  Ni45  1  0.83354210  0.16696930  0.49997478  1
  Ni  Ni46  1  0.66704120  0.00185572  0.66727361  1
  Ni  Ni47  1  0.83335645  0.16715496  0.83415941  1
  Ni  Ni48  1  0.83463880  0.49979793  0.49935303  1
  Ni  Ni49  1  0.66703798  0.33199291  0.66703813  1
  Ni  Ni50  1  0.83445266  0.49961262  0.83478062  1
  Ni  Ni51  1  0.83457945  0.83434849  0.49966506  1
  Cr  Cr52  1  0.66703323  0.66724234  0.66724998  1
  Ni  Ni53  1  0.83263488  0.83434876  0.83464842  1
" 