7400,Ni92Cr8_10,-202.802595945276, 185.725858686092,Ni92Cr8,"# generated using pymatgen
 data_Cr49Ni5
_symmetry_space_group_name_H-M   'P 1'
_cell_length_a   7.59251723
_cell_length_b   7.59251723
_cell_length_c   10.73744083
_cell_angle_alpha   90.00000000
_cell_angle_beta   90.00000000
_cell_angle_gamma   90.00000000
_symmetry_Int_Tables_number   1
_chemical_formula_structural   Cr49Ni5
_chemical_formula_sum   'Cr49 Ni5'
_cell_volume   618.97392697
_cell_formula_units_Z   1
loop_
 _symmetry_equiv_pos_site_id
 _symmetry_equiv_pos_as_xyz
  1  'x, y, z'
loop_
 _atom_site_type_symbol
 _atom_site_label
 _atom_site_symmetry_multiplicity
 _atom_site_fract_x
 _atom_site_fract_y
 _atom_site_fract_z
 _atom_site_occupancy
  Cr  Cr0  1  0.99161865  -0.00756926  0.99173057  1
  Cr  Cr1  1  0.15698145  0.15889876  0.15782065  1
  Cr  Cr2  1  0.99018137  0.99009625  0.32603156  1
  Ni  Ni3  1  0.99166845  0.32539804  0.99139884  1
  Cr  Cr4  1  0.15697537  0.49106778  0.15821404  1
  Cr  Cr5  1  0.99146449  0.32555139  0.32430643  1
  Cr  Cr6  1  0.99088242  0.65773679  -0.00825493  1
  Cr  Cr7  1  0.16005899  0.82525182  0.15874914  1
  Cr  Cr8  1  0.99085572  0.65958623  0.32685115  1
  Cr  Cr9  1  0.32562397  0.99152940  -0.00769646  1
  Cr  Cr10  1  0.49203835  0.15651875  0.15953998  1
  Cr  Cr11  1  0.32561019  0.99141718  0.32336828  1
  Cr  Cr12  1  0.32435499  0.32518504  0.99172915  1
  Cr  Cr13  1  0.49322818  0.49445725  0.15828825  1
  Cr  Cr14  1  0.32569409  0.32558621  0.32506935  1
  Cr  Cr15  1  0.32621660  0.65855115  -0.00769407  1
  Ni  Ni16  1  0.49319716  0.82375422  0.15703592  1
  Cr  Cr17  1  0.32497637  0.65823679  0.32410665  1
  Cr  Cr18  1  0.65795336  0.99060764  -0.00772488  1
  Cr  Cr19  1  0.82620416  0.15956654  0.15739606  1
  Cr  Cr20  1  0.65940431  0.99089707  0.32547288  1
  Cr  Cr21  1  0.65873144  0.32591949  -0.00825386  1
  Cr  Cr22  1  0.82504251  0.49155695  0.15611314  1
  Cr  Cr23  1  0.65803660  0.32490414  0.32545327  1
  Ni  Ni24  1  0.65729766  0.65947803  -0.00684178  1
  Cr  Cr25  1  0.82288464  0.82405761  0.15794789  1
  Cr  Cr26  1  0.65938998  0.65938804  0.32505474  1
  Cr  Cr27  1  0.15789339  0.15879789  0.49218015  1
  Cr  Cr28  1  0.99027211  0.99098850  0.65750515  1
  Cr  Cr29  1  0.15640529  0.15947770  0.82506840  1
  Cr  Cr30  1  0.15785456  0.49095281  0.49222207  1
  Ni  Ni31  1  0.99170854  0.32504405  0.65872563  1
  Cr  Cr32  1  0.15631553  0.49040648  0.82458530  1
  Cr  Cr33  1  0.15802515  0.82542807  0.49178761  1
  Cr  Cr34  1  0.99096290  0.65850446  0.65665294  1
  Cr  Cr35  1  0.15886828  0.82530191  0.82469790  1
  Cr  Cr36  1  0.49143737  0.15801047  0.49177233  1
  Cr  Cr37  1  0.32501659  -0.00801224  0.65958685  1
  Cr  Cr38  1  0.49199849  0.15765986  0.82388781  1
  Cr  Cr39  1  0.49179597  0.49216376  0.49175559  1
  Cr  Cr40  1  0.32471592  0.32554599  0.65843869  1
  Cr  Cr41  1  0.49334517  0.49351380  0.82532370  1
  Cr  Cr42  1  0.49245834  0.82505554  0.49167489  1
  Cr  Cr43  1  0.32435250  0.65769727  0.65879922  1
  Cr  Cr44  1  0.49256125  0.82406018  0.82646541  1
  Cr  Cr45  1  0.82586908  0.15818530  0.49217878  1
  Cr  Cr46  1  0.65991627  0.99143994  0.65746798  1
  Cr  Cr47  1  0.82683972  0.16019271  0.82542712  1
  Cr  Cr48  1  0.82554636  0.49192391  0.49222175  1
  Cr  Cr49  1  0.65911455  0.32484765  0.65798914  1
  Cr  Cr50  1  0.82556738  0.49104242  0.82680172  1
  Ni  Ni51  1  0.82473627  0.82510221  0.49177262  1
  Cr  Cr52  1  0.65990672  0.65890217  0.65794596  1
  Cr  Cr53  1  0.82375817  0.82395123  0.82566671  1
" 