7775,Ni92Fe7Cr0_9,-239.708376992822, 184.028520096044,Ni92Fe7Cr0,"# generated using pymatgen
 data_Cr2Fe3Ni49
_symmetry_space_group_name_H-M   'P 1'
_cell_length_a   7.45153489
_cell_length_b   7.45153489
_cell_length_c   10.53806170
_cell_angle_alpha   90.00000000
_cell_angle_beta   90.00000000
_cell_angle_gamma   90.00000000
_symmetry_Int_Tables_number   1
_chemical_formula_structural   Cr2Fe3Ni49
_chemical_formula_sum   'Cr2 Fe3 Ni49'
_cell_volume   585.12979857
_cell_formula_units_Z   1
loop_
 _symmetry_equiv_pos_site_id
 _symmetry_equiv_pos_as_xyz
  1  'x, y, z'
loop_
 _atom_site_type_symbol
 _atom_site_label
 _atom_site_symmetry_multiplicity
 _atom_site_fract_x
 _atom_site_fract_y
 _atom_site_fract_z
 _atom_site_occupancy
  Ni  Ni0  1  0.00124405  1.00096238  1.00097026  1
  Ni  Ni1  1  0.16737382  0.16768648  0.16698907  1
  Ni  Ni2  1  0.00215328  0.00284850  0.33367794  1
  Ni  Ni3  1  0.00239943  0.33431055  1.00054709  1
  Ni  Ni4  1  0.16865674  0.50047426  0.16715108  1
  Ni  Ni5  1  1.00094643  0.33366731  0.33445789  1
  Ni  Ni6  1  0.00129474  0.66781788  0.00213100  1
  Ni  Ni7  1  0.16818918  0.83490568  0.16804545  1
  Fe  Fe8  1  0.00214278  0.66687086  0.33346603  1
  Ni  Ni9  1  0.33367960  1.00048816  0.00138035  1
  Fe  Fe10  1  0.49999935  0.16699708  0.16855963  1
  Ni  Ni11  1  0.33380815  1.00011931  0.33460334  1
  Ni  Ni12  1  0.33260932  0.33470929  0.00141218  1
  Ni  Ni13  1  0.49998553  0.50256180  0.16843707  1
  Ni  Ni14  1  0.33369405  0.33488275  0.33409495  1
  Ni  Ni15  1  0.33409847  0.66789604  1.00087231  1
  Ni  Ni16  1  0.50112621  0.83362043  0.16691840  1
  Ni  Ni17  1  0.33508423  0.66802633  0.33478156  1
  Ni  Ni18  1  0.66800974  0.99934347  0.00129779  1
  Ni  Ni19  1  0.83594929  0.16648000  0.16844631  1
  Ni  Ni20  1  0.66715215  0.00130730  0.33316329  1
  Cr  Cr21  1  0.66852662  0.33474952  0.00162853  1
  Ni  Ni22  1  0.83458620  0.50171672  0.16862351  1
  Ni  Ni23  1  0.66848746  0.33493437  0.33466202  1
  Ni  Ni24  1  0.66761494  0.66897024  1.00084232  1
  Ni  Ni25  1  0.83379282  0.83495607  0.16747322  1
  Ni  Ni26  1  0.66578316  0.66687134  0.33335342  1
  Ni  Ni27  1  0.16808095  0.16776286  0.50150999  1
  Ni  Ni28  1  0.00210961  0.00167073  0.66844565  1
  Ni  Ni29  1  0.16848916  0.16739537  0.83458410  1
  Ni  Ni30  1  0.16847076  0.50062202  0.50102306  1
  Ni  Ni31  1  1.00098381  0.33447271  0.66812318  1
  Ni  Ni32  1  0.16845491  0.50127675  0.83496385  1
  Ni  Ni33  1  0.16959027  0.83471557  0.50064793  1
  Ni  Ni34  1  0.00212408  0.66691498  0.66766230  1
  Ni  Ni35  1  0.16685939  0.83444523  0.83447342  1
  Ni  Ni36  1  0.50074956  0.16785202  0.49997705  1
  Ni  Ni37  1  0.33404488  1.00084301  0.66711820  1
  Ni  Ni38  1  0.49993153  0.16771542  0.83436574  1
  Ni  Ni39  1  0.50080098  0.50089685  0.50113767  1
  Ni  Ni40  1  0.33428729  0.33444923  0.66751407  1
  Ni  Ni41  1  0.49994528  0.50092585  0.83356440  1
  Ni  Ni42  1  0.49986748  0.83431549  0.50188304  1
  Ni  Ni43  1  0.33402155  0.66785060  0.66751247  1
  Fe  Fe44  1  0.50063665  0.83460616  0.83441243  1
  Ni  Ni45  1  0.83426143  0.16878375  0.50149808  1
  Ni  Ni46  1  0.66684804  0.00194927  0.66857569  1
  Ni  Ni47  1  0.83464717  0.16620055  0.83321363  1
  Ni  Ni48  1  0.83389109  0.49953613  0.50106133  1
  Ni  Ni49  1  0.66782777  0.33443083  0.66699094  1
  Ni  Ni50  1  0.83475554  0.50247300  0.83353998  1
  Cr  Cr51  1  0.83431927  0.83475767  0.50048996  1
  Ni  Ni52  1  0.66694838  0.66674441  0.66891465  1
  Ni  Ni53  1  0.83487445  0.83442846  0.83502021  1
" 