2623,Ni92Fe4Cr2_14,-239.381539749731, 180.181908726964,Ni92Fe4Cr2,"# generated using pymatgen
 data_CrFeNi25
_symmetry_space_group_name_H-M   'P 1'
_cell_length_a   7.45470258
_cell_length_b   7.45470258
_cell_length_c   10.54254149
_cell_angle_alpha   90.00000000
_cell_angle_beta   90.00000000
_cell_angle_gamma   90.00000000
_symmetry_Int_Tables_number   1
_chemical_formula_structural   CrFeNi25
_chemical_formula_sum   'Cr2 Fe2 Ni50'
_cell_volume   585.87634150
_cell_formula_units_Z   2
loop_
 _symmetry_equiv_pos_site_id
 _symmetry_equiv_pos_as_xyz
  1  'x, y, z'
loop_
 _atom_site_type_symbol
 _atom_site_label
 _atom_site_symmetry_multiplicity
 _atom_site_fract_x
 _atom_site_fract_y
 _atom_site_fract_z
 _atom_site_occupancy
  Ni  Ni0  1  0.00144229  0.00227481  0.00082800  1
  Ni  Ni1  1  0.16723431  0.16752399  0.16725625  1
  Ni  Ni2  1  0.00090848  1.00042922  0.33352849  1
  Ni  Ni3  1  0.00142256  0.33270339  0.00082800  1
  Ni  Ni4  1  0.16824817  0.50008312  0.16816135  1
  Ni  Ni5  1  0.00099057  0.33466316  0.33359981  1
  Cr  Cr6  1  0.00150905  0.66750537  0.00082800  1
  Ni  Ni7  1  0.16824767  0.83487684  0.16865907  1
  Ni  Ni8  1  1.00046065  0.66739014  0.33398027  1
  Ni  Ni9  1  0.33415012  0.00175955  0.00082800  1
  Ni  Ni10  1  0.50086099  0.16726783  0.16751323  1
  Ni  Ni11  1  0.33426577  0.00087713  0.33398179  1
  Ni  Ni12  1  0.33416989  0.33321859  0.00082800  1
  Ni  Ni13  1  0.49984669  0.50034052  0.16841939  1
  Ni  Ni14  1  0.33418416  0.33421647  0.33405275  1
  Fe  Fe15  1  0.33415391  0.66750212  0.00082800  1
  Ni  Ni16  1  0.50010549  0.83487606  0.16816038  1
  Ni  Ni17  1  0.33426694  0.66738917  0.33309195  1
  Ni  Ni18  1  0.66689163  0.00229461  0.00082800  1
  Ni  Ni19  1  0.83438845  0.16726685  0.16721428  1
  Ni  Ni20  1  0.66731006  1.00034723  0.33359975  1
  Ni  Ni21  1  0.66689159  0.33270331  0.00082800  1
  Ni  Ni22  1  0.83438834  0.49931914  0.16944903  1
  Ni  Ni23  1  0.66730958  0.33466471  0.33364986  1
  Cr  Cr24  1  0.66682417  0.66748716  0.00082800  1
  Ni  Ni25  1  0.83412952  0.83589771  0.16918940  1
  Ni  Ni26  1  0.66775646  0.66747185  0.33405162  1
  Ni  Ni27  1  0.16747456  0.16816745  0.50082800  1
  Ni  Ni28  1  0.00090848  1.00042922  0.66812752  1
  Ni  Ni29  1  0.16723431  0.16752399  0.83439976  1
  Ni  Ni30  1  0.16750609  0.50017770  0.50082800  1
  Ni  Ni31  1  0.00099057  0.33466316  0.66805619  1
  Ni  Ni32  1  0.16824817  0.50008312  0.83349466  1
  Fe  Fe33  1  0.16750669  0.83414749  0.50082800  1
  Ni  Ni34  1  1.00046065  0.66739014  0.66767574  1
  Ni  Ni35  1  0.16824767  0.83487684  0.83299694  1
  Ni  Ni36  1  0.50038653  0.16703316  0.50082800  1
  Ni  Ni37  1  0.33426577  0.00087713  0.66767421  1
  Ni  Ni38  1  0.50086099  0.16726783  0.83414278  1
  Ni  Ni39  1  0.50035489  0.50131209  0.50082800  1
  Ni  Ni40  1  0.33418416  0.33421647  0.66760326  1
  Ni  Ni41  1  0.49984669  0.50034052  0.83323661  1
  Ni  Ni42  1  0.50148930  0.83413893  0.50082800  1
  Ni  Ni43  1  0.33426694  0.66738917  0.66856406  1
  Ni  Ni44  1  0.50010549  0.83487606  0.83349563  1
  Ni  Ni45  1  0.83462284  0.16703321  0.50082800  1
  Ni  Ni46  1  0.66731006  1.00034723  0.66805626  1
  Ni  Ni47  1  0.83438845  0.16726685  0.83444172  1
  Ni  Ni48  1  0.83462290  0.50128038  0.50082800  1
  Ni  Ni49  1  0.66730958  0.33466471  0.66800615  1
  Ni  Ni50  1  0.83438834  0.49931914  0.83220698  1
  Ni  Ni51  1  0.83348855  0.83417055  0.50082800  1
  Ni  Ni52  1  0.66775646  0.66747185  0.66760439  1
  Ni  Ni53  1  0.83412952  0.83589771  0.83246661  1
" 