4751,Ni92Fe2Cr4_12,-237.42166267162, 172.816091692537,Ni92Fe2Cr4,"# generated using pymatgen
 data_Cr4FeNi49
_symmetry_space_group_name_H-M   'P 1'
_cell_length_a   7.46182207
_cell_length_b   7.46182207
_cell_length_c   10.55260997
_cell_angle_alpha   90.00000000
_cell_angle_beta   90.00000000
_cell_angle_gamma   90.00000000
_symmetry_Int_Tables_number   1
_chemical_formula_structural   Cr4FeNi49
_chemical_formula_sum   'Cr4 Fe1 Ni49'
_cell_volume   587.55653884
_cell_formula_units_Z   1
loop_
 _symmetry_equiv_pos_site_id
 _symmetry_equiv_pos_as_xyz
  1  'x, y, z'
loop_
 _atom_site_type_symbol
 _atom_site_label
 _atom_site_symmetry_multiplicity
 _atom_site_fract_x
 _atom_site_fract_y
 _atom_site_fract_z
 _atom_site_occupancy
  Ni  Ni0  1  0.00052913  0.99858200  1.00007904  1
  Ni  Ni1  1  0.16781162  0.16644991  0.16804548  1
  Ni  Ni2  1  0.00075502  0.00050473  0.33395409  1
  Cr  Cr3  1  1.00034845  0.33368179  0.00043012  1
  Ni  Ni4  1  0.16781532  0.50114865  0.16768057  1
  Ni  Ni5  1  0.99955270  0.33288603  0.33357585  1
  Ni  Ni6  1  1.00017517  0.66878440  1.00007872  1
  Ni  Ni7  1  0.16678978  0.83345180  0.16701757  1
  Ni  Ni8  1  0.99937755  0.66765839  0.33292879  1
  Ni  Ni9  1  0.33365110  0.00037866  1.00021142  1
  Ni  Ni10  1  0.50030105  0.16729672  0.16684099  1
  Ni  Ni11  1  0.33324131  0.00056264  0.33399846  1
  Ni  Ni12  1  0.33545107  0.33350850  1.00007872  1
  Ni  Ni13  1  0.50011847  0.50012311  0.16701757  1
  Ni  Ni14  1  0.33432506  0.33271088  0.33292879  1
  Ni  Ni15  1  0.33383007  0.66716340  0.99966973  1
  Ni  Ni16  1  0.50029743  0.83363077  0.16707354  1
  Ni  Ni17  1  0.33444386  0.66777719  0.33351372  1
  Ni  Ni18  1  0.66687022  1.00020355  0.99966970  1
  Ni  Ni19  1  0.83293777  0.16627110  0.16786894  1
  Ni  Ni20  1  0.66705410  0.00038743  0.33430767  1
  Ni  Ni21  1  0.66524867  0.33386246  1.00007904  1
  Ni  Ni22  1  0.83311657  0.50114496  0.16804548  1
  Ni  Ni23  1  0.66717140  0.33408836  0.33395409  1
  Ni  Ni24  1  0.66704532  0.66698443  1.00021142  1
  Ni  Ni25  1  0.83396339  0.83363438  0.16684099  1
  Ni  Ni26  1  0.66722931  0.66657465  0.33399846  1
  Ni  Ni27  1  0.16632283  0.16601458  0.49945650  1
  Ni  Ni28  1  0.99901965  1.00007818  0.66701746  1
  Ni  Ni29  1  0.16711773  0.16714407  0.83354945  1
  Cr  Cr30  1  0.16739418  0.50072751  0.50060304  1
  Fe  Fe31  1  0.99949251  0.33282584  0.66756046  1
  Ni  Ni32  1  0.16814282  0.50147615  0.83265824  1
  Ni  Ni33  1  0.16623114  0.83435082  0.49976863  1
  Ni  Ni34  1  0.00111453  0.66808683  0.66804323  1
  Ni  Ni35  1  0.16600759  0.83242919  0.83426292  1
  Ni  Ni36  1  0.50150700  0.16767063  0.49976854  1
  Cr  Cr37  1  0.33342375  0.00040276  0.66663754  1
  Ni  Ni38  1  0.50132190  0.16807938  0.83443997  1
  Ni  Ni39  1  0.50101748  0.49956448  0.49976863  1
  Ni  Ni40  1  0.33475349  0.33444786  0.66804323  1
  Ni  Ni41  1  0.49909586  0.49934092  0.83426292  1
  Ni  Ni42  1  0.50048158  0.83381491  0.49876488  1
  Ni  Ni43  1  0.33228979  0.66562313  0.66786693  1
  Ni  Ni44  1  0.50029697  0.83363030  0.83520899  1
  Ni  Ni45  1  0.83322019  0.16655352  0.50071440  1
  Ni  Ni46  1  0.66920608  0.00253942  0.66707337  1
  Ni  Ni47  1  0.83261061  0.16594395  0.83247042  1
  Ni  Ni48  1  0.83268125  0.49965616  0.49945650  1
  Ni  Ni49  1  0.66674485  0.33235298  0.66701746  1
  Ni  Ni50  1  0.83381073  0.50045107  0.83354945  1
  Ni  Ni51  1  0.83433730  0.83484033  0.49976854  1
  Cr  Cr52  1  0.66706943  0.66675708  0.66663754  1
  Ni  Ni53  1  0.83474604  0.83465524  0.83443997  1
" 