7110,Ni92Fe4Cr2_15,-239.397380509154, 180.69319217296,Ni92Fe4Cr2,"# generated using pymatgen
 data_CrFeNi25
_symmetry_space_group_name_H-M   'P 1'
_cell_length_a   7.45525301
_cell_length_b   7.45525301
_cell_length_c   10.54331991
_cell_angle_alpha   90.00000000
_cell_angle_beta   90.00000000
_cell_angle_gamma   90.00000000
_symmetry_Int_Tables_number   1
_chemical_formula_structural   CrFeNi25
_chemical_formula_sum   'Cr2 Fe2 Ni50'
_cell_volume   586.00612774
_cell_formula_units_Z   2
loop_
 _symmetry_equiv_pos_site_id
 _symmetry_equiv_pos_as_xyz
  1  'x, y, z'
loop_
 _atom_site_type_symbol
 _atom_site_label
 _atom_site_symmetry_multiplicity
 _atom_site_fract_x
 _atom_site_fract_y
 _atom_site_fract_z
 _atom_site_occupancy
  Cr  Cr0  1  1.00052865  0.00105340  0.00106005  1
  Ni  Ni1  1  0.16813911  0.16835314  0.16844654  1
  Fe  Fe2  1  0.00168110  0.99990096  0.33355405  1
  Ni  Ni3  1  0.00143581  0.33588445  1.00076741  1
  Ni  Ni4  1  0.16719345  0.50076301  0.16727086  1
  Ni  Ni5  1  0.00163967  0.33535274  0.33308990  1
  Ni  Ni6  1  1.00034026  0.66524841  1.00076711  1
  Ni  Ni7  1  0.16832810  0.83325395  0.16822070  1
  Ni  Ni8  1  1.00033352  0.66682684  0.33390063  1
  Ni  Ni9  1  0.33633365  0.00124179  1.00076711  1
  Ni  Ni10  1  0.50092628  0.16714172  0.16753098  1
  Ni  Ni11  1  0.33475521  0.00124854  0.33390063  1
  Ni  Ni12  1  0.33338543  0.33403188  0.00101362  1
  Ni  Ni13  1  0.50073771  0.50084434  0.16762496  1
  Ni  Ni14  1  0.33360171  0.33339128  0.33433500  1
  Ni  Ni15  1  0.33448366  0.66709839  0.00101353  1
  Ni  Ni16  1  0.50081905  0.83438861  0.16727086  1
  Ni  Ni17  1  0.33384913  0.66773292  0.33384695  1
  Ni  Ni18  1  0.66569761  1.00014624  1.00076741  1
  Ni  Ni19  1  0.83330746  0.16827460  0.16814044  1
  Ni  Ni20  1  0.66622931  0.99994238  0.33308990  1
  Fe  Fe21  1  0.66713956  0.33444249  1.00079083  1
  Ni  Ni22  1  0.83444034  0.50065578  0.16753098  1
  Ni  Ni23  1  0.66713258  0.33444948  0.33280307  1
  Ni  Ni24  1  0.66755017  0.66819662  0.00101362  1
  Ni  Ni25  1  0.83322891  0.83344294  0.16844654  1
  Ni  Ni26  1  0.66819077  0.66798034  0.33433500  1
  Ni  Ni27  1  0.16929462  0.16755588  0.50089065  1
  Ni  Ni28  1  0.00139244  1.00018961  0.66790967  1
  Ni  Ni29  1  0.16803717  0.16825133  0.83303843  1
  Ni  Ni30  1  0.16760810  0.50092710  0.50081708  1
  Ni  Ni31  1  0.00164009  0.33473586  0.66851527  1
  Ni  Ni32  1  0.16717448  0.50076396  0.83428481  1
  Ni  Ni33  1  0.16769374  0.83388831  0.50089115  1
  Ni  Ni34  1  1.00033354  0.66744626  0.66770486  1
  Ni  Ni35  1  0.16822512  0.83335694  0.83326321  1
  Ni  Ni36  1  0.49906405  0.16748028  0.50081681  1
  Ni  Ni37  1  0.33413580  0.00124852  0.66770486  1
  Ni  Ni38  1  0.50092349  0.16712055  0.83402226  1
  Ni  Ni39  1  0.50066353  0.50091852  0.50077935  1
  Ni  Ni40  1  0.33382798  0.33361702  0.66702487  1
  Ni  Ni41  1  0.50073552  0.50084654  0.83396673  1
  Ni  Ni42  1  0.50065495  0.83397395  0.50081708  1
  Ni  Ni43  1  0.33407465  0.66750740  0.66751282  1
  Ni  Ni44  1  0.50081809  0.83440757  0.83428481  1
  Cr  Cr45  1  0.83394291  0.16763914  0.50096268  1
  Ni  Ni46  1  0.66684620  0.99994197  0.66851527  1
  Ni  Ni47  1  0.83341076  0.16817130  0.83334300  1
  Ni  Ni48  1  0.83410178  0.50251800  0.50081681  1
  Ni  Ni49  1  0.66690483  0.33467722  0.66855805  1
  Ni  Ni50  1  0.83446150  0.50065856  0.83402226  1
  Ni  Ni51  1  0.83402617  0.83228743  0.50089065  1
  Ni  Ni52  1  0.66796504  0.66775407  0.66702487  1
  Ni  Ni53  1  0.83333072  0.83354488  0.83303843  1
" 