1727,Ni92Fe7Cr0_19,-239.738415455417, 184.413355639245,Ni92Fe7Cr0,"# generated using pymatgen
 data_Cr2Fe3Ni49
_symmetry_space_group_name_H-M   'P 1'
_cell_length_a   7.45393778
_cell_length_b   7.45393778
_cell_length_c   10.54145990
_cell_angle_alpha   90.00000000
_cell_angle_beta   90.00000000
_cell_angle_gamma   90.00000000
_symmetry_Int_Tables_number   1
_chemical_formula_structural   Cr2Fe3Ni49
_chemical_formula_sum   'Cr2 Fe3 Ni49'
_cell_volume   585.69603913
_cell_formula_units_Z   1
loop_
 _symmetry_equiv_pos_site_id
 _symmetry_equiv_pos_as_xyz
  1  'x, y, z'
loop_
 _atom_site_type_symbol
 _atom_site_label
 _atom_site_symmetry_multiplicity
 _atom_site_fract_x
 _atom_site_fract_y
 _atom_site_fract_z
 _atom_site_occupancy
  Ni  Ni0  1  0.00101975  1.00072158  1.00069934  1
  Fe  Fe1  1  0.16662284  0.16806404  0.16769116  1
  Ni  Ni2  1  0.00093018  1.00069471  0.33464680  1
  Ni  Ni3  1  0.00262950  0.33455066  1.00081039  1
  Ni  Ni4  1  0.16836595  0.50274970  0.16705457  1
  Ni  Ni5  1  1.00079290  0.33468662  0.33391686  1
  Ni  Ni6  1  0.00118465  0.66747585  1.00083849  1
  Ni  Ni7  1  0.16682555  0.83383979  0.16769286  1
  Ni  Ni8  1  0.00124802  0.66738968  0.33437775  1
  Ni  Ni9  1  0.33422897  1.00047460  0.00090978  1
  Ni  Ni10  1  0.50030155  0.16715279  0.16846652  1
  Ni  Ni11  1  0.33404996  1.00068151  0.33445100  1
  Ni  Ni12  1  0.33249595  0.33434775  0.00099666  1
  Ni  Ni13  1  0.49945064  0.50021835  0.16851395  1
  Ni  Ni14  1  0.33397056  0.33452171  0.33412836  1
  Ni  Ni15  1  0.33404859  0.66773483  1.00077848  1
  Fe  Fe16  1  0.50141386  0.83332043  0.16831840  1
  Ni  Ni17  1  0.33376038  0.66744113  0.33448228  1
  Ni  Ni18  1  0.66727743  0.99907293  0.00100004  1
  Ni  Ni19  1  0.83333934  0.16568306  0.16815025  1
  Ni  Ni20  1  0.66761992  0.00091466  0.33401893  1
  Cr  Cr21  1  0.66822671  0.33459922  1.00026948  1
  Ni  Ni22  1  0.83488274  0.50223084  0.16818470  1
  Ni  Ni23  1  0.66770624  0.33424084  0.33483788  1
  Ni  Ni24  1  0.66744379  0.66931846  1.00079786  1
  Ni  Ni25  1  0.83584587  0.83476035  0.16744044  1
  Ni  Ni26  1  0.66775120  0.66734511  0.33423395  1
  Ni  Ni27  1  0.16805285  0.16715959  0.50035432  1
  Ni  Ni28  1  0.00272659  0.00098542  0.66744270  1
  Ni  Ni29  1  0.16836359  0.16674135  0.83520756  1
  Ni  Ni30  1  0.16805177  0.50127892  0.50085833  1
  Ni  Ni31  1  0.00120725  0.33424298  0.66804961  1
  Ni  Ni32  1  0.16834088  0.50170151  0.83470464  1
  Ni  Ni33  1  0.16740119  0.83420252  0.50110286  1
  Ni  Ni34  1  0.00107510  0.66740447  0.66742810  1
  Ni  Ni35  1  0.16664987  0.83419195  0.83386497  1
  Ni  Ni36  1  0.49986291  0.16873355  0.50006509  1
  Ni  Ni37  1  0.33218837  0.00096953  0.66730910  1
  Ni  Ni38  1  0.49885063  0.16839688  0.83408560  1
  Ni  Ni39  1  0.50066661  0.50049108  0.50075294  1
  Ni  Ni40  1  0.33372534  0.33420667  0.66767886  1
  Ni  Ni41  1  0.49958950  0.50077494  0.83337158  1
  Ni  Ni42  1  0.49970609  0.83337589  0.49968026  1
  Ni  Ni43  1  0.33384493  0.66740923  0.66728476  1
  Fe  Fe44  1  0.49977342  0.83314466  0.83426422  1
  Ni  Ni45  1  0.83474452  0.16813293  0.49998349  1
  Cr  Cr46  1  0.66775580  0.00090632  0.66744236  1
  Ni  Ni47  1  0.83546288  0.16665963  0.83441329  1
  Ni  Ni48  1  0.83391850  0.50114465  0.50074864  1
  Ni  Ni49  1  0.66768598  0.33585585  0.66724634  1
  Ni  Ni50  1  0.83473565  0.50261059  0.83366517  1
  Ni  Ni51  1  0.83550615  0.83336558  0.49967644  1
  Ni  Ni52  1  0.66770135  0.66579149  0.66753358  1
  Ni  Ni53  1  0.83646631  0.83337766  0.83556501  1
" 