5074,Ni92Fe2Cr4_16,-237.42025902471, 171.958053360511,Ni92Fe2Cr4,"# generated using pymatgen
 data_Cr4FeNi49
_symmetry_space_group_name_H-M   'P 1'
_cell_length_a   7.46371932
_cell_length_b   7.46371932
_cell_length_c   10.55529309
_cell_angle_alpha   90.00000000
_cell_angle_beta   90.00000000
_cell_angle_gamma   90.00000000
_symmetry_Int_Tables_number   1
_chemical_formula_structural   Cr4FeNi49
_chemical_formula_sum   'Cr4 Fe1 Ni49'
_cell_volume   588.00483290
_cell_formula_units_Z   1
loop_
 _symmetry_equiv_pos_site_id
 _symmetry_equiv_pos_as_xyz
  1  'x, y, z'
loop_
 _atom_site_type_symbol
 _atom_site_label
 _atom_site_symmetry_multiplicity
 _atom_site_fract_x
 _atom_site_fract_y
 _atom_site_fract_z
 _atom_site_occupancy
  Ni  Ni0  1  0.99999730  0.99980653  0.99988090  1
  Ni  Ni1  1  0.16722541  0.16661313  0.16685353  1
  Ni  Ni2  1  1.00008802  0.99767848  0.33193847  1
  Ni  Ni3  1  0.00099166  0.33291801  0.99917748  1
  Ni  Ni4  1  0.16847475  0.50039704  0.16692157  1
  Ni  Ni5  1  0.00103117  0.33492481  0.33262795  1
  Ni  Ni6  1  0.00132173  0.66796340  0.99912953  1
  Ni  Ni7  1  0.16721482  0.83365708  0.16692987  1
  Ni  Ni8  1  0.00122572  0.66800238  0.33477590  1
  Ni  Ni9  1  0.33405698  0.99986378  0.99999216  1
  Ni  Ni10  1  0.49985310  0.16680576  0.16726505  1
  Ni  Ni11  1  0.33501926  0.99883119  0.33309871  1
  Ni  Ni12  1  0.33389246  0.33371057  0.99987166  1
  Ni  Ni13  1  0.49886200  0.50068478  0.16664051  1
  Ni  Ni14  1  0.33492194  0.33472455  0.33317281  1
  Ni  Ni15  1  0.33359476  0.66710684  0.00053311  1
  Ni  Ni16  1  0.50018482  0.83314631  0.16664468  1
  Ni  Ni17  1  0.33372518  0.66712927  0.33334309  1
  Ni  Ni18  1  0.66662163  1.00013493  0.00053365  1
  Ni  Ni19  1  0.83358771  0.16555207  0.16684947  1
  Ni  Ni20  1  0.66563661  0.99904692  0.33253311  1
  Ni  Ni21  1  0.66575109  0.33239646  0.99914814  1
  Cr  Cr22  1  0.83261236  0.50127324  0.16652178  1
  Ni  Ni23  1  0.66475665  0.33359254  0.33371815  1
  Ni  Ni24  1  0.66571218  0.66821339  0.99866243  1
  Ni  Ni25  1  0.83328986  0.83468369  0.16695260  1
  Ni  Ni26  1  0.66568067  0.66815380  0.33511728  1
  Cr  Cr27  1  0.16999568  0.16501130  0.50007105  1
  Ni  Ni28  1  0.99954140  0.99610455  0.66885263  1
  Ni  Ni29  1  0.16824737  0.16563210  0.83411982  1
  Ni  Ni30  1  0.16811750  0.50272869  0.49906103  1
  Cr  Cr31  1  0.99995937  0.33619199  0.66899149  1
  Ni  Ni32  1  0.16811758  0.50151092  0.83464937  1
  Ni  Ni33  1  0.16729369  0.83189881  0.50037413  1
  Ni  Ni34  1  0.00094368  0.66852230  0.66663080  1
  Ni  Ni35  1  0.16730336  0.83345852  0.83333515  1
  Ni  Ni36  1  0.50023503  0.16670648  0.50038669  1
  Ni  Ni37  1  0.33543247  0.99839962  0.66773462  1
  Ni  Ni38  1  0.49999458  0.16669019  0.83305988  1
  Ni  Ni39  1  0.50011185  0.50061828  0.50023035  1
  Ni  Ni40  1  0.33669412  0.33521721  0.66769412  1
  Ni  Ni41  1  0.50006099  0.50051159  0.83382549  1
  Ni  Ni42  1  0.49990856  0.83345048  0.50030265  1
  Ni  Ni43  1  0.33284371  0.66696784  0.66681191  1
  Ni  Ni44  1  0.49987482  0.83348849  0.83377567  1
  Cr  Cr45  1  0.83168847  0.16565041  0.49855232  1
  Ni  Ni46  1  0.66583101  0.99987201  0.66758606  1
  Ni  Ni47  1  0.83244582  0.16586366  0.83479424  1
  Ni  Ni48  1  0.83232491  0.50283723  0.49965019  1
  Ni  Ni49  1  0.66443742  0.33371670  0.66759077  1
  Ni  Ni50  1  0.83240447  0.50144638  0.83418379  1
  Ni  Ni51  1  0.83333124  0.83182024  0.50026428  1
  Fe  Fe52  1  0.66616753  0.66735168  0.66712734  1
  Ni  Ni53  1  0.83340359  0.83336143  0.83355063  1
" 