6733,Ni92Fe4Cr2_4,-239.400923932876, 180.899256042914,Ni92Fe4Cr2,"# generated using pymatgen
 data_CrFeNi25
_symmetry_space_group_name_H-M   'P 1'
_cell_length_a   7.45651020
_cell_length_b   7.45651020
_cell_length_c   10.54509785
_cell_angle_alpha   90.00000000
_cell_angle_beta   90.00000000
_cell_angle_gamma   90.00000000
_symmetry_Int_Tables_number   1
_chemical_formula_structural   CrFeNi25
_chemical_formula_sum   'Cr2 Fe2 Ni50'
_cell_volume   586.30263538
_cell_formula_units_Z   2
loop_
 _symmetry_equiv_pos_site_id
 _symmetry_equiv_pos_as_xyz
  1  'x, y, z'
loop_
 _atom_site_type_symbol
 _atom_site_label
 _atom_site_symmetry_multiplicity
 _atom_site_fract_x
 _atom_site_fract_y
 _atom_site_fract_z
 _atom_site_occupancy
  Ni  Ni0  1  1.00037902  0.00095502  0.00110957  1
  Ni  Ni1  1  0.16694346  0.16621468  0.16726056  1
  Ni  Ni2  1  1.00016234  0.00124601  0.33411527  1
  Ni  Ni3  1  0.99986071  0.33280943  0.99963998  1
  Cr  Cr4  1  0.16832658  0.50101729  0.16717751  1
  Ni  Ni5  1  0.00156976  0.33193808  0.33405982  1
  Ni  Ni6  1  0.99953121  0.66838601  0.99995376  1
  Ni  Ni7  1  0.16696939  0.83529141  0.16760238  1
  Ni  Ni8  1  1.00019782  0.66893328  0.33407668  1
  Ni  Ni9  1  0.33422757  0.00095960  0.00145343  1
  Ni  Ni10  1  0.50119025  0.16749658  0.16733626  1
  Ni  Ni11  1  0.33449970  0.00123182  0.33354481  1
  Ni  Ni12  1  0.33493130  0.33311672  0.99963269  1
  Ni  Ni13  1  0.50166831  0.50070930  0.16764118  1
  Ni  Ni14  1  0.33416760  0.33310217  0.33515549  1
  Ni  Ni15  1  0.33528458  0.66806899  0.99997599  1
  Ni  Ni16  1  0.50120641  0.83384215  0.16724599  1
  Ni  Ni17  1  0.33552652  0.66779711  0.33518422  1
  Ni  Ni18  1  0.66750786  1.00062018  1.00048420  1
  Ni  Ni19  1  0.83389055  0.16639499  0.16759084  1
  Ni  Ni20  1  0.66742792  0.99983181  0.33435862  1
  Ni  Ni21  1  0.66726033  0.33401126  0.00150076  1
  Fe  Fe22  1  0.83301035  0.50098260  0.16673497  1
  Fe  Fe23  1  0.66615109  0.33263185  0.33352886  1
  Ni  Ni24  1  0.66723583  0.66750777  0.00076974  1
  Ni  Ni25  1  0.83387921  0.83499546  0.16749565  1
  Ni  Ni26  1  0.66629378  0.66909774  0.33295573  1
  Ni  Ni27  1  0.16725755  0.16743862  0.50027872  1
  Ni  Ni28  1  1.00067098  0.00095539  0.66689350  1
  Ni  Ni29  1  0.16728739  0.16734273  0.83458404  1
  Ni  Ni30  1  0.16890246  0.50070871  0.50101790  1
  Ni  Ni31  1  0.00167397  0.33306561  0.66833298  1
  Ni  Ni32  1  0.16742333  0.50083507  0.83355914  1
  Ni  Ni33  1  0.16729420  0.83395371  0.49993342  1
  Ni  Ni34  1  0.00141092  0.66811063  0.66804053  1
  Ni  Ni35  1  0.16728901  0.83394170  0.83458971  1
  Ni  Ni36  1  0.50079225  0.16712860  0.50053008  1
  Ni  Ni37  1  0.33413002  0.00095640  0.66713195  1
  Ni  Ni38  1  0.50110254  0.16743454  0.83434489  1
  Ni  Ni39  1  0.49890976  0.50083345  0.50060122  1
  Ni  Ni40  1  0.33397381  0.33396719  0.66724541  1
  Ni  Ni41  1  0.50074247  0.50056998  0.83398007  1
  Ni  Ni42  1  0.50093700  0.83410321  0.50050941  1
  Ni  Ni43  1  0.33430153  0.66719371  0.66689243  1
  Ni  Ni44  1  0.50083844  0.83411888  0.83434105  1
  Ni  Ni45  1  0.83403983  0.16543559  0.50085488  1
  Ni  Ni46  1  0.66731580  1.00063032  0.66724514  1
  Ni  Ni47  1  0.83373984  0.16727533  0.83375378  1
  Cr  Cr48  1  0.83419476  0.50089799  0.50022923  1
  Ni  Ni49  1  0.66641964  0.33324687  0.66762939  1
  Ni  Ni50  1  0.83391382  0.50057161  0.83514258  1
  Ni  Ni51  1  0.83388323  0.83576969  0.50082499  1
  Ni  Ni52  1  0.66640862  0.66820415  0.66834080  1
  Ni  Ni53  1  0.83400332  0.83427694  0.83374370  1
" 