8665,Ni92Cr8_0,-202.860783649134, 188.532601844417,Ni92Cr8,"# generated using pymatgen
 data_Cr49Ni5
_symmetry_space_group_name_H-M   'P 1'
_cell_length_a   7.59450721
_cell_length_b   7.59450721
_cell_length_c   10.74025510
_cell_angle_alpha   90.00000000
_cell_angle_beta   90.00000000
_cell_angle_gamma   90.00000000
_symmetry_Int_Tables_number   1
_chemical_formula_structural   Cr49Ni5
_chemical_formula_sum   'Cr49 Ni5'
_cell_volume   619.46075024
_cell_formula_units_Z   1
loop_
 _symmetry_equiv_pos_site_id
 _symmetry_equiv_pos_as_xyz
  1  'x, y, z'
loop_
 _atom_site_type_symbol
 _atom_site_label
 _atom_site_symmetry_multiplicity
 _atom_site_fract_x
 _atom_site_fract_y
 _atom_site_fract_z
 _atom_site_occupancy
  Cr  Cr0  1  0.99057771  0.99105784  0.99058799  1
  Cr  Cr1  1  0.15832488  0.15750210  0.15792321  1
  Cr  Cr2  1  0.99102480  -0.00780935  0.32446893  1
  Cr  Cr3  1  -0.00769229  0.32459320  -0.00803944  1
  Cr  Cr4  1  0.15937849  0.49208245  0.15832568  1
  Cr  Cr5  1  -0.00724647  0.32538236  0.32573218  1
  Cr  Cr6  1  0.99058215  0.65917569  0.99023241  1
  Cr  Cr7  1  0.15832463  0.82524077  0.15792301  1
  Cr  Cr8  1  -0.00783431  0.65725202  0.32596413  1
  Cr  Cr9  1  0.32483362  -0.00780906  0.99137566  1
  Cr  Cr10  1  0.49160935  0.15973034  0.15792292  1
  Cr  Cr11  1  0.32596638  0.99105648  0.32596481  1
  Cr  Cr12  1  0.32537676  0.32573358  -0.00725149  1
  Ni  Ni13  1  0.49165414  0.49136795  0.15807884  1
  Cr  Cr14  1  0.32424385  0.32651735  0.32423781  1
  Cr  Cr15  1  0.32596782  0.65690079  -0.00748214  1
  Cr  Cr16  1  0.49101943  0.82360121  0.15890985  1
  Cr  Cr17  1  0.32596329  0.65725026  0.32596402  1
  Cr  Cr18  1  0.65941325  0.99046855  0.99081944  1
  Cr  Cr19  1  0.82489156  0.15867407  0.15909242  1
  Cr  Cr20  1  0.65783441  0.99046814  0.32573312  1
  Cr  Cr21  1  0.65713992  0.32572834  -0.00729913  1
  Cr  Cr22  1  0.82324941  0.49149273  0.15850751  1
  Cr  Cr23  1  0.65782827  0.32538228  0.32350124  1
  Cr  Cr24  1  0.65827306  0.65862946  -0.00803831  1
  Cr  Cr25  1  0.82548129  0.82465851  0.15810561  1
  Cr  Cr26  1  0.65669694  0.65897404  0.32423801  1
  Cr  Cr27  1  0.15832461  0.15898024  0.49125685  1
  Cr  Cr28  1  0.99042016  0.99121740  0.65976732  1
  Cr  Cr29  1  0.15869357  0.15752763  0.82564581  1
  Ni  Ni30  1  0.15840643  0.49183215  0.49150993  1
  Cr  Cr31  1  -0.00835625  0.32572623  0.65713208  1
  Cr  Cr32  1  0.15811078  0.49224023  0.82465843  1
  Cr  Cr33  1  0.15996417  0.82360125  0.49102537  1
  Cr  Cr34  1  0.99156068  0.65788155  0.65862552  1
  Cr  Cr35  1  0.15705212  0.82505682  0.82587706  1
  Cr  Cr36  1  0.49258129  0.15742548  0.49298154  1
  Cr  Cr37  1  0.32612457  0.99121611  0.65748579  1
  Cr  Cr38  1  0.49221521  0.15924937  0.82391902  1
  Cr  Cr39  1  0.49153020  0.49215615  0.49257677  1
  Cr  Cr40  1  0.32490930  0.32573215  0.65784096  1
  Cr  Cr41  1  0.49279688  0.49051907  0.82490684  1
  Ni  Ni42  1  0.49114482  0.82490750  0.49146172  1
  Cr  Cr43  1  0.32499077  0.65787446  0.65634588  1
  Cr  Cr44  1  0.49212963  0.82505686  0.82465808  1
  Cr  Cr45  1  0.82391817  0.15964688  0.49181246  1
  Cr  Cr46  1  0.65827986  0.99113762  0.65827169  1
  Cr  Cr47  1  0.82391794  0.15819805  0.82392022  1
  Cr  Cr48  1  0.82555946  0.49052142  0.49239652  1
  Ni  Ni49  1  0.65827433  0.32479748  0.65842207  1
  Cr  Cr50  1  0.82391881  0.49216027  0.82392033  1
  Cr  Cr51  1  0.82400195  0.82465843  0.49107511  1
  Cr  Cr52  1  0.65827483  0.65909682  0.65862775  1
  Ni  Ni53  1  0.82522888  0.82513576  0.82523608  1
" 