6611,Ni92Cr8_19,-202.853266597178, 186.135040551664,Ni92Cr8,"# generated using pymatgen
 data_Cr49Ni5
_symmetry_space_group_name_H-M   'P 1'
_cell_length_a   7.59400467
_cell_length_b   7.59400467
_cell_length_c   10.73954440
_cell_angle_alpha   90.00000000
_cell_angle_beta   90.00000000
_cell_angle_gamma   90.00000000
_symmetry_Int_Tables_number   1
_chemical_formula_structural   Cr49Ni5
_chemical_formula_sum   'Cr49 Ni5'
_cell_volume   619.33778645
_cell_formula_units_Z   1
loop_
 _symmetry_equiv_pos_site_id
 _symmetry_equiv_pos_as_xyz
  1  'x, y, z'
loop_
 _atom_site_type_symbol
 _atom_site_label
 _atom_site_symmetry_multiplicity
 _atom_site_fract_x
 _atom_site_fract_y
 _atom_site_fract_z
 _atom_site_occupancy
  Cr  Cr0  1  -0.00769627  -0.00775218  0.99160924  1
  Cr  Cr1  1  0.15839623  0.15869462  0.15829121  1
  Cr  Cr2  1  0.99093867  -0.00672075  0.32644204  1
  Cr  Cr3  1  0.99097408  0.32639497  0.99158751  1
  Cr  Cr4  1  0.15721591  0.49109877  0.15864423  1
  Cr  Cr5  1  0.98896644  0.32445200  0.32498825  1
  Cr  Cr6  1  -0.00801781  0.65635106  0.99086256  1
  Cr  Cr7  1  0.15726270  0.82517929  0.15917718  1
  Cr  Cr8  1  0.99076259  0.65725856  0.32449387  1
  Cr  Cr9  1  0.32495629  0.99107290  -0.00711629  1
  Cr  Cr10  1  0.49102210  0.15890822  0.15747011  1
  Cr  Cr11  1  0.32530405  0.99128270  0.32371127  1
  Cr  Cr12  1  0.32449377  0.32569659  0.98987638  1
  Cr  Cr13  1  0.49259579  0.49109947  0.15916136  1
  Cr  Cr14  1  0.32558954  0.32445781  0.32549411  1
  Cr  Cr15  1  0.32457165  0.65815132  0.99028197  1
  Cr  Cr16  1  0.49213964  0.82492594  0.15830421  1
  Cr  Cr17  1  0.32553004  0.65912718  0.32542988  1
  Cr  Cr18  1  0.65761927  -0.00779919  0.99071891  1
  Cr  Cr19  1  0.82551258  0.15894763  0.15796245  1
  Cr  Cr20  1  0.65859803  -0.00676356  0.32675919  1
  Cr  Cr21  1  0.65956904  0.32605907  -0.00611592  1
  Ni  Ni22  1  0.82554010  0.49173658  0.15830650  1
  Cr  Cr23  1  0.66047212  0.32475995  0.32405064  1
  Cr  Cr24  1  0.65841646  0.65665642  -0.00693693  1
  Cr  Cr25  1  0.82550824  0.82356855  0.15745536  1
  Cr  Cr26  1  0.65871138  0.65693428  0.32360009  1
  Cr  Cr27  1  0.15798721  0.15985327  0.49141025  1
  Cr  Cr28  1  0.99009968  -0.00702257  0.65684150  1
  Cr  Cr29  1  0.15899876  0.16088288  0.82519161  1
  Cr  Cr30  1  0.15946613  0.49051633  0.49311519  1
  Cr  Cr31  1  -0.00772106  0.32499248  0.65839515  1
  Ni  Ni32  1  0.15962852  0.49008395  0.82353606  1
  Cr  Cr33  1  0.15745520  0.82440399  0.49002591  1
  Cr  Cr34  1  -0.00709932  0.65722974  0.65973830  1
  Cr  Cr35  1  0.15700943  0.82411034  0.82572760  1
  Cr  Cr36  1  0.49218768  0.15928015  0.49347082  1
  Cr  Cr37  1  0.32585840  -0.00790679  0.65829412  1
  Cr  Cr38  1  0.49202039  0.15891173  0.82382210  1
  Cr  Cr39  1  0.49044951  0.49044051  0.49232051  1
  Ni  Ni40  1  0.32375349  0.32578094  0.65986663  1
  Cr  Cr41  1  0.49005991  0.48986651  0.82345420  1
  Cr  Cr42  1  0.49290272  0.82498425  0.49220973  1
  Cr  Cr43  1  0.32395634  0.65698022  0.65931318  1
  Cr  Cr44  1  0.49382172  0.82594399  0.82436802  1
  Ni  Ni45  1  0.82347562  0.15714704  0.49292814  1
  Ni  Ni46  1  0.65915151  -0.00647794  0.65688845  1
  Cr  Cr47  1  0.82397888  0.15699765  0.82388450  1
  Cr  Cr48  1  0.82500374  0.49113614  0.49046592  1
  Cr  Cr49  1  0.65879585  0.32312516  0.65696935  1
  Cr  Cr50  1  0.82596477  0.49194366  0.82618127  1
  Cr  Cr51  1  0.82442512  0.82637511  0.49354493  1
  Cr  Cr52  1  0.65801987  0.65921754  0.65828513  1
  Cr  Cr53  1  0.82400953  0.82603778  0.82385429  1
" 