2816,Ni92Fe2Cr4_13,-237.45653076203, 172.720274406101,Ni92Fe2Cr4,"# generated using pymatgen
 data_Cr4FeNi49
_symmetry_space_group_name_H-M   'P 1'
_cell_length_a   7.46508434
_cell_length_b   7.46508434
_cell_length_c   10.55722352
_cell_angle_alpha   90.00000000
_cell_angle_beta   90.00000000
_cell_angle_gamma   90.00000000
_symmetry_Int_Tables_number   1
_chemical_formula_structural   Cr4FeNi49
_chemical_formula_sum   'Cr4 Fe1 Ni49'
_cell_volume   588.32750676
_cell_formula_units_Z   1
loop_
 _symmetry_equiv_pos_site_id
 _symmetry_equiv_pos_as_xyz
  1  'x, y, z'
loop_
 _atom_site_type_symbol
 _atom_site_label
 _atom_site_symmetry_multiplicity
 _atom_site_fract_x
 _atom_site_fract_y
 _atom_site_fract_z
 _atom_site_occupancy
  Ni  Ni0  1  1.00011430  0.99808122  1.00004628  1
  Ni  Ni1  1  0.16764880  0.16567850  0.16791664  1
  Ni  Ni2  1  0.99926650  0.00099376  0.33246469  1
  Cr  Cr3  1  0.99995656  0.33328537  0.99986041  1
  Ni  Ni4  1  0.16764843  0.50122940  0.16742207  1
  Ni  Ni5  1  0.00038168  0.33347090  0.33435311  1
  Ni  Ni6  1  1.00002313  0.66895861  1.00013094  1
  Ni  Ni7  1  0.16655515  0.83348756  0.16642740  1
  Ni  Ni8  1  0.99927818  0.66593038  0.33246568  1
  Ni  Ni9  1  0.33332931  0.99993746  0.99984569  1
  Ni  Ni10  1  0.49985031  0.16721032  0.16637844  1
  Ni  Ni11  1  0.33398169  0.00099155  0.33285830  1
  Ni  Ni12  1  0.33527230  0.33335521  1.00012032  1
  Ni  Ni13  1  0.50010147  0.49994753  0.16662882  1
  Ni  Ni14  1  0.33286671  0.33347112  0.33358208  1
  Ni  Ni15  1  0.33341963  0.66710108  0.99992907  1
  Ni  Ni16  1  0.49966173  0.83323679  0.16681830  1
  Ni  Ni17  1  0.33397001  0.66593241  0.33285936  1
  Ni  Ni18  1  0.66695151  0.99993098  0.99981102  1
  Ni  Ni19  1  0.83289497  0.16611603  0.16747744  1
  Ni  Ni20  1  0.66714564  0.99988788  0.33396113  1
  Ni  Ni21  1  0.66509722  0.33344760  1.00003537  1
  Ni  Ni22  1  0.83264677  0.50104120  0.16772498  1
  Ni  Ni23  1  0.66714560  0.33346084  0.33333244  1
  Ni  Ni24  1  0.66695378  0.66701621  0.99984489  1
  Ni  Ni25  1  0.83417706  0.83323687  0.16656889  1
  Ni  Ni26  1  0.66714555  0.66704576  0.33396085  1
  Ni  Ni27  1  0.16741406  0.16945877  0.49950556  1
  Cr  Cr28  1  0.99904782  0.00258042  0.66767016  1
  Ni  Ni29  1  0.16826685  0.16588265  0.83297014  1
  Ni  Ni30  1  0.16741409  0.49745237  0.50000119  1
  Ni  Ni31  1  0.00027037  0.33336014  0.66630639  1
  Fe  Fe32  1  0.16859400  0.50017513  0.83336216  1
  Cr  Cr33  1  0.16853997  0.83368287  0.49818322  1
  Cr  Cr34  1  0.99908560  0.66452244  0.66771425  1
  Ni  Ni35  1  0.16827504  0.83413871  0.83556577  1
  Ni  Ni36  1  0.50004536  0.16693081  0.50060825  1
  Ni  Ni37  1  0.33624716  0.00118547  0.66768993  1
  Ni  Ni38  1  0.49960902  0.16721352  0.83340701  1
  Ni  Ni39  1  0.50029695  0.50022684  0.50035740  1
  Ni  Ni40  1  0.33336922  0.33335937  0.66669742  1
  Ni  Ni41  1  0.50075436  0.50018539  0.83340670  1
  Ni  Ni42  1  0.50172787  0.83323654  0.50085706  1
  Ni  Ni43  1  0.33633457  0.66584728  0.66760923  1
  Ni  Ni44  1  0.49942278  0.83299597  0.83272083  1
  Ni  Ni45  1  0.83293458  0.16802903  0.49975545  1
  Ni  Ni46  1  0.66488628  1.00008438  0.66662278  1
  Ni  Ni47  1  0.83252002  0.16721725  0.83315958  1
  Ni  Ni48  1  0.83268584  0.49912911  0.49950750  1
  Ni  Ni49  1  0.66675935  0.33344701  0.66702676  1
  Ni  Ni50  1  0.83137318  0.50018235  0.83316012  1
  Ni  Ni51  1  0.83015329  0.83323659  0.49864673  1
  Ni  Ni52  1  0.66489251  0.66686274  0.66658893  1
  Ni  Ni53  1  0.83269671  0.83299514  0.83517568  1
" 