5399,Ni92Fe4Cr2_2,-239.364183908312, 180.710317813101,Ni92Fe4Cr2,"# generated using pymatgen
 data_CrFeNi25
_symmetry_space_group_name_H-M   'P 1'
_cell_length_a   7.45897130
_cell_length_b   7.45897130
_cell_length_c   10.54857838
_cell_angle_alpha   90.00000000
_cell_angle_beta   90.00000000
_cell_angle_gamma   90.00000000
_symmetry_Int_Tables_number   1
_chemical_formula_structural   CrFeNi25
_chemical_formula_sum   'Cr2 Fe2 Ni50'
_cell_volume   586.88337440
_cell_formula_units_Z   2
loop_
 _symmetry_equiv_pos_site_id
 _symmetry_equiv_pos_as_xyz
  1  'x, y, z'
loop_
 _atom_site_type_symbol
 _atom_site_label
 _atom_site_symmetry_multiplicity
 _atom_site_fract_x
 _atom_site_fract_y
 _atom_site_fract_z
 _atom_site_occupancy
  Ni  Ni0  1  1.00030705  0.00144264  1.00030332  1
  Ni  Ni1  1  0.16710761  0.16717375  0.16722813  1
  Ni  Ni2  1  1.00053202  0.00098618  0.33342258  1
  Ni  Ni3  1  0.00137059  0.33328031  0.00112208  1
  Ni  Ni4  1  0.16710944  0.50066416  0.16684654  1
  Ni  Ni5  1  0.00054205  0.33388365  0.33392603  1
  Ni  Ni6  1  0.00137164  0.66689987  0.00112408  1
  Ni  Ni7  1  0.16718548  0.83378324  0.16711222  1
  Ni  Ni8  1  0.00054139  0.66675447  0.33342298  1
  Ni  Ni9  1  0.33456079  1.00033810  1.00030305  1
  Ni  Ni10  1  0.50059096  0.16728291  0.16710643  1
  Ni  Ni11  1  0.33410627  0.00073471  0.33367400  1
  Fe  Fe12  1  0.33240129  0.33302640  0.00137796  1
  Ni  Ni13  1  0.50077514  0.50074198  0.16729733  1
  Ni  Ni14  1  0.33384498  0.33388352  0.33344141  1
  Ni  Ni15  1  0.33349570  0.66800139  0.00112471  1
  Ni  Ni16  1  0.50058611  0.83359383  0.16696657  1
  Ni  Ni17  1  0.33409681  0.66700523  0.33367360  1
  Ni  Ni18  1  0.66675554  1.00034480  1.00006045  1
  Ni  Ni19  1  0.83392395  0.16736382  0.16703439  1
  Ni  Ni20  1  0.66698593  0.00073280  0.33367590  1
  Fe  Fe21  1  0.66779039  0.33208717  0.00231868  1
  Ni  Ni22  1  0.83373855  0.50066123  0.16722506  1
  Ni  Ni23  1  0.66723614  0.33387420  0.33344106  1
  Ni  Ni24  1  0.66675540  0.66907922  0.00219640  1
  Ni  Ni25  1  0.83385247  0.83359482  0.16692258  1
  Ni  Ni26  1  0.66698601  0.66701517  0.33367424  1
  Ni  Ni27  1  0.16721720  0.16730071  0.50064709  1
  Ni  Ni28  1  1.00030645  0.00098533  0.66789862  1
  Ni  Ni29  1  0.16711050  0.16681571  0.83375283  1
  Ni  Ni30  1  0.16721695  0.50053885  0.50102824  1
  Ni  Ni31  1  0.00137363  0.33327644  0.66657840  1
  Ni  Ni32  1  0.16711267  0.50065919  0.83375550  1
  Ni  Ni33  1  0.16720165  0.83378499  0.50064684  1
  Ni  Ni34  1  0.00137830  0.66736433  0.66707291  1
  Ni  Ni35  1  0.16718597  0.83414400  0.83386503  1
  Ni  Ni36  1  0.50058662  0.16750313  0.50083738  1
  Ni  Ni37  1  0.33433158  0.00073507  0.66764832  1
  Ni  Ni38  1  0.50040570  0.16512331  0.83367967  1
  Ni  Ni39  1  0.50077298  0.50052323  0.50064647  1
  Ni  Ni40  1  0.33301514  0.33327682  0.66706408  1
  Cr  Cr41  1  0.49921074  0.50088565  0.83353755  1
  Ni  Ni42  1  0.50058644  0.83359775  0.50083776  1
  Ni  Ni43  1  0.33326077  0.66761123  0.66682595  1
  Ni  Ni44  1  0.50040553  0.83574743  0.83382275  1
  Ni  Ni45  1  0.83382039  0.16748764  0.50083746  1
  Ni  Ni46  1  0.66698604  0.00073484  0.66789153  1
  Ni  Ni47  1  0.83410664  0.16520809  0.83375307  1
  Ni  Ni48  1  0.83363411  0.50053882  0.50064665  1
  Ni  Ni49  1  0.66723317  0.33220145  0.66599263  1
  Cr  Cr50  1  0.83537161  0.50092357  0.83348841  1
  Ni  Ni51  1  0.83383616  0.83359759  0.50083794  1
  Ni  Ni52  1  0.66698585  0.66868546  0.66575374  1
  Ni  Ni53  1  0.83403215  0.83575445  0.83386602  1
" 