1878,Ni92Fe7Cr0_5,-239.574550496766, 182.6313506232,Ni92Fe7Cr0,"# generated using pymatgen
 data_Cr2Fe3Ni49
_symmetry_space_group_name_H-M   'P 1'
_cell_length_a   7.45132728
_cell_length_b   7.45132728
_cell_length_c   10.53776809
_cell_angle_alpha   90.00000000
_cell_angle_beta   90.00000000
_cell_angle_gamma   90.00000000
_symmetry_Int_Tables_number   1
_chemical_formula_structural   Cr2Fe3Ni49
_chemical_formula_sum   'Cr2 Fe3 Ni49'
_cell_volume   585.08089133
_cell_formula_units_Z   1
loop_
 _symmetry_equiv_pos_site_id
 _symmetry_equiv_pos_as_xyz
  1  'x, y, z'
loop_
 _atom_site_type_symbol
 _atom_site_label
 _atom_site_symmetry_multiplicity
 _atom_site_fract_x
 _atom_site_fract_y
 _atom_site_fract_z
 _atom_site_occupancy
  Ni  Ni0  1  0.00137075  1.00099332  0.00133868  1
  Ni  Ni1  1  0.16811750  0.16804591  0.16776447  1
  Ni  Ni2  1  0.00116145  1.00056246  0.33411555  1
  Ni  Ni3  1  0.00105979  0.33424982  0.00147694  1
  Ni  Ni4  1  0.16703662  0.50111606  0.16726365  1
  Fe  Fe5  1  0.00134493  0.33435597  0.33453000  1
  Ni  Ni6  1  0.00272148  0.66789311  1.00075127  1
  Ni  Ni7  1  0.16807008  0.83402081  0.16817152  1
  Ni  Ni8  1  1.00096487  0.66831686  0.33425373  1
  Ni  Ni9  1  0.33384794  0.00131596  0.00111110  1
  Ni  Ni10  1  0.50085663  0.16650634  0.16757614  1
  Ni  Ni11  1  0.33385310  0.00178358  0.33453708  1
  Ni  Ni12  1  0.33332352  0.33307425  0.00184367  1
  Fe  Fe13  1  0.50021326  0.50001915  0.16900045  1
  Ni  Ni14  1  0.33496939  0.33409759  0.33435961  1
  Ni  Ni15  1  0.33134882  0.66870432  0.00227098  1
  Ni  Ni16  1  0.50009790  0.83624118  0.16863705  1
  Ni  Ni17  1  0.33380223  0.66721370  0.33419577  1
  Ni  Ni18  1  0.66792117  0.00300838  0.00112161  1
  Ni  Ni19  1  0.83416664  0.16775743  0.16789054  1
  Ni  Ni20  1  0.66809816  0.00157468  0.33417918  1
  Ni  Ni21  1  0.66881009  0.33169269  0.00180562  1
  Ni  Ni22  1  0.83661382  0.50030188  0.16875977  1
  Ni  Ni23  1  0.66708350  0.33425527  0.33450548  1
  Cr  Cr24  1  0.66928058  0.66874252  0.00222602  1
  Ni  Ni25  1  0.83491802  0.83503215  0.16846779  1
  Ni  Ni26  1  0.66832265  0.66724349  0.33452540  1
  Ni  Ni27  1  0.16785904  0.16859542  0.50071487  1
  Ni  Ni28  1  0.00111689  0.00130510  0.66774822  1
  Ni  Ni29  1  0.16766052  0.16802604  0.83467820  1
  Ni  Ni30  1  0.16770409  0.50060885  0.50140569  1
  Ni  Ni31  1  0.00124233  0.33409667  0.66727484  1
  Ni  Ni32  1  0.16590047  0.50088291  0.83458411  1
  Fe  Fe33  1  0.16736314  0.83454775  0.50090591  1
  Ni  Ni34  1  1.00097490  0.66777753  0.66820692  1
  Ni  Ni35  1  0.16792045  0.83426052  0.83418235  1
  Ni  Ni36  1  0.50070789  0.16706163  0.50144123  1
  Ni  Ni37  1  0.33395246  0.00159468  0.66758525  1
  Ni  Ni38  1  0.50085571  0.16562418  0.83422304  1
  Ni  Ni39  1  0.50052233  0.50159133  0.50028427  1
  Ni  Ni40  1  0.33341817  0.33331117  0.66695633  1
  Cr  Cr41  1  0.49962787  0.50016702  0.83349555  1
  Ni  Ni42  1  0.50173245  0.83450757  0.50106205  1
  Ni  Ni43  1  0.33318547  0.66837981  0.66663401  1
  Ni  Ni44  1  0.50005837  0.83702302  0.83352826  1
  Ni  Ni45  1  0.83462750  0.16717039  0.50071886  1
  Ni  Ni46  1  0.66806640  0.00135360  0.66787866  1
  Ni  Ni47  1  0.83466119  0.16766831  0.83455761  1
  Ni  Ni48  1  0.83496292  0.50165568  0.50134935  1
  Ni  Ni49  1  0.66857023  0.33340535  0.66676648  1
  Ni  Ni50  1  0.83744126  0.50008006  0.83315509  1
  Ni  Ni51  1  0.83339572  0.83435521  0.50079012  1
  Ni  Ni52  1  0.66887553  0.66836964  0.66634112  1
  Ni  Ni53  1  0.83518472  0.83542459  0.83381541  1
" 