1854,Ni92Fe2Cr4_18,-237.456606342808, 173.245105037076,Ni92Fe2Cr4,"# generated using pymatgen
 data_Cr4FeNi49
_symmetry_space_group_name_H-M   'P 1'
_cell_length_a   7.46289277
_cell_length_b   7.46289277
_cell_length_c   10.55412417
_cell_angle_alpha   90.00000000
_cell_angle_beta   90.00000000
_cell_angle_gamma   90.00000000
_symmetry_Int_Tables_number   1
_chemical_formula_structural   Cr4FeNi49
_chemical_formula_sum   'Cr4 Fe1 Ni49'
_cell_volume   587.80950201
_cell_formula_units_Z   1
loop_
 _symmetry_equiv_pos_site_id
 _symmetry_equiv_pos_as_xyz
  1  'x, y, z'
loop_
 _atom_site_type_symbol
 _atom_site_label
 _atom_site_symmetry_multiplicity
 _atom_site_fract_x
 _atom_site_fract_y
 _atom_site_fract_z
 _atom_site_occupancy
  Ni  Ni0  1  0.00119853  0.99898679  0.99933945  1
  Fe  Fe1  1  0.16753408  0.16685396  0.16635980  1
  Ni  Ni2  1  0.00170452  0.99816016  0.33360065  1
  Ni  Ni3  1  0.00130074  0.33513193  0.99925905  1
  Ni  Ni4  1  0.16599490  0.50142457  0.16702765  1
  Ni  Ni5  1  0.00054003  0.33596043  0.33353793  1
  Ni  Ni6  1  0.00066753  0.66668020  0.00033131  1
  Ni  Ni7  1  0.16699473  0.83272983  0.16722203  1
  Ni  Ni8  1  0.00052498  0.66670907  0.33356741  1
  Ni  Ni9  1  0.33368417  1.00010161  0.00072161  1
  Ni  Ni10  1  0.49837421  0.16656030  0.16618841  1
  Ni  Ni11  1  0.33297416  0.99931948  0.33232095  1
  Ni  Ni12  1  0.33250475  0.33299241  0.99937734  1
  Cr  Cr13  1  0.50081271  0.50058493  0.16650626  1
  Ni  Ni14  1  0.33334376  0.33383814  0.33334261  1
  Ni  Ni15  1  0.33216960  0.66774341  0.99903038  1
  Ni  Ni16  1  0.49875389  0.83422033  0.16586252  1
  Ni  Ni17  1  0.33245175  0.66770359  0.33474578  1
  Ni  Ni18  1  0.66601161  0.99935064  0.99914434  1
  Cr  Cr19  1  0.83350758  0.16822511  0.16607005  1
  Cr  Cr20  1  0.66586661  0.99868648  0.33518945  1
  Ni  Ni21  1  0.66702894  0.33354864  0.99826451  1
  Ni  Ni22  1  0.83575461  0.50161606  0.16692071  1
  Ni  Ni23  1  0.66698807  0.33501346  0.33574638  1
  Ni  Ni24  1  0.66812771  0.66805183  0.99987953  1
  Ni  Ni25  1  0.83526468  0.83179141  0.16587317  1
  Ni  Ni26  1  0.66805381  0.66636055  0.33399768  1
  Cr  Cr27  1  0.16631905  0.16623710  0.50004757  1
  Ni  Ni28  1  0.99943246  0.99920323  0.66788702  1
  Ni  Ni29  1  0.16677095  0.16656201  0.83464245  1
  Ni  Ni30  1  0.16710365  0.50188043  0.50035373  1
  Ni  Ni31  1  0.99962017  0.33503335  0.66814339  1
  Ni  Ni32  1  0.16710582  0.50068482  0.83342459  1
  Ni  Ni33  1  0.16697171  0.83199871  0.50044752  1
  Ni  Ni34  1  1.00018828  0.66654141  0.66696530  1
  Ni  Ni35  1  0.16695012  0.83359874  0.83311875  1
  Ni  Ni36  1  0.50049096  0.16796136  0.50098712  1
  Ni  Ni37  1  0.33465068  0.99947135  0.66782285  1
  Ni  Ni38  1  0.50032431  0.16693427  0.83372681  1
  Ni  Ni39  1  0.50000760  0.50054626  0.50013475  1
  Ni  Ni40  1  0.33420339  0.33454342  0.66810283  1
  Ni  Ni41  1  0.50018649  0.50054671  0.83372817  1
  Ni  Ni42  1  0.49891479  0.83236907  0.50089088  1
  Ni  Ni43  1  0.33347226  0.66677393  0.66696999  1
  Ni  Ni44  1  0.49997158  0.83336110  0.83412034  1
  Ni  Ni45  1  0.83335649  0.16778633  0.50165422  1
  Ni  Ni46  1  0.66674344  1.00000193  0.66699849  1
  Ni  Ni47  1  0.83381122  0.16676743  0.83303741  1
  Ni  Ni48  1  0.83370890  0.50036917  0.49946493  1
  Ni  Ni49  1  0.66696666  0.33388790  0.66663474  1
  Ni  Ni50  1  0.83351636  0.50036895  0.83442881  1
  Ni  Ni51  1  0.83502810  0.83262497  0.50096175  1
  Ni  Ni52  1  0.66716586  0.66695808  0.66681546  1
  Ni  Ni53  1  0.83391780  0.83367444  0.83409495  1
" 