6732,Ni92Fe5Cr2_18,-238.583689078238, 177.457151132294,Ni92Fe5Cr2,"# generated using pymatgen
 data_Cr3Fe2Ni49
_symmetry_space_group_name_H-M   'P 1'
_cell_length_a   7.45698069
_cell_length_b   7.45698069
_cell_length_c   10.54576322
_cell_angle_alpha   90.00000000
_cell_angle_beta   90.00000000
_cell_angle_gamma   90.00000000
_symmetry_Int_Tables_number   1
_chemical_formula_structural   Cr3Fe2Ni49
_chemical_formula_sum   'Cr3 Fe2 Ni49'
_cell_volume   586.41362540
_cell_formula_units_Z   1
loop_
 _symmetry_equiv_pos_site_id
 _symmetry_equiv_pos_as_xyz
  1  'x, y, z'
loop_
 _atom_site_type_symbol
 _atom_site_label
 _atom_site_symmetry_multiplicity
 _atom_site_fract_x
 _atom_site_fract_y
 _atom_site_fract_z
 _atom_site_occupancy
  Ni  Ni0  1  0.99922410  0.00070300  1.00044848  1
  Ni  Ni1  1  0.16650168  0.16854179  0.16786108  1
  Ni  Ni2  1  0.00166368  0.00278846  0.33280240  1
  Ni  Ni3  1  1.00021037  0.33402355  1.00043246  1
  Ni  Ni4  1  0.16749906  0.50054798  0.16709723  1
  Ni  Ni5  1  1.00043037  0.33320570  0.33414403  1
  Ni  Ni6  1  1.00065924  0.66729259  0.00136456  1
  Ni  Ni7  1  0.16620883  0.83289512  0.16909801  1
  Fe  Fe8  1  0.00100016  0.66569598  0.33289799  1
  Cr  Cr9  1  0.33244930  0.99897610  0.00199000  1
  Ni  Ni10  1  0.50128650  0.16830966  0.16899501  1
  Ni  Ni11  1  0.33351635  1.00011552  0.33439041  1
  Ni  Ni12  1  0.33276104  0.33695758  0.00196683  1
  Ni  Ni13  1  0.50024287  0.50075242  0.16715097  1
  Ni  Ni14  1  0.33349542  0.33453438  0.33365455  1
  Ni  Ni15  1  0.33403720  0.66601479  1.00043097  1
  Ni  Ni16  1  0.50179828  0.83299101  0.16810843  1
  Ni  Ni17  1  0.33496280  0.66737075  0.33395983  1
  Ni  Ni18  1  0.67021631  0.99950438  0.00190222  1
  Ni  Ni19  1  0.83425621  0.16702034  0.16739209  1
  Ni  Ni20  1  0.66696785  0.00113242  0.33282856  1
  Ni  Ni21  1  0.66903228  0.33553726  0.00193056  1
  Ni  Ni22  1  0.83430298  0.50097774  0.16787179  1
  Ni  Ni23  1  0.66810759  0.33472439  0.33445852  1
  Ni  Ni24  1  0.66735903  0.66700179  1.00044989  1
  Ni  Ni25  1  0.83405341  0.83401025  0.16690347  1
  Ni  Ni26  1  0.66554279  0.66609987  0.33306412  1
  Ni  Ni27  1  0.16752468  0.16827936  0.50095130  1
  Ni  Ni28  1  0.00160602  0.00189841  0.66867601  1
  Ni  Ni29  1  0.16498351  0.16865972  0.83318547  1
  Ni  Ni30  1  0.16757895  0.49983070  0.50065660  1
  Ni  Ni31  1  1.00043111  0.33405753  0.66742999  1
  Ni  Ni32  1  0.16725966  0.50076937  0.83425207  1
  Fe  Fe33  1  0.16872006  0.83409602  0.50088329  1
  Ni  Ni34  1  0.00144701  0.66604201  0.66750094  1
  Ni  Ni35  1  0.16596538  0.83264938  0.83225760  1
  Ni  Ni36  1  0.50000885  0.16702861  0.50019939  1
  Ni  Ni37  1  0.33283511  0.99944667  0.66580640  1
  Cr  Cr38  1  0.50114178  0.16886759  0.83309455  1
  Ni  Ni39  1  0.49988169  0.50099851  0.50096240  1
  Ni  Ni40  1  0.33276531  0.33529002  0.66649220  1
  Ni  Ni41  1  0.50018570  0.50234927  0.83390574  1
  Ni  Ni42  1  0.49997449  0.83399128  0.50093891  1
  Ni  Ni43  1  0.33422594  0.66730848  0.66760446  1
  Ni  Ni44  1  0.50185390  0.83160921  0.83294238  1
  Ni  Ni45  1  0.83456774  0.16804217  0.50095123  1
  Ni  Ni46  1  0.66765442  1.00047213  0.66735181  1
  Ni  Ni47  1  0.83571192  0.16702646  0.83366856  1
  Ni  Ni48  1  0.83464894  0.49971167  0.50069123  1
  Ni  Ni49  1  0.66880282  0.33542990  0.66574003  1
  Ni  Ni50  1  0.83456525  0.50123724  0.83344187  1
  Cr  Cr51  1  0.83350394  0.83376980  0.50040530  1
  Ni  Ni52  1  0.66652915  0.66610783  0.66842593  1
  Ni  Ni53  1  0.83429098  0.83375583  0.83443989  1
" 