2310,Ni92Fe7Cr0_8,-239.594378253202, 183.085136012727,Ni92Fe7Cr0,"# generated using pymatgen
 data_Cr2Fe3Ni49
_symmetry_space_group_name_H-M   'P 1'
_cell_length_a   7.45116439
_cell_length_b   7.45116439
_cell_length_c   10.53753774
_cell_angle_alpha   90.00000000
_cell_angle_beta   90.00000000
_cell_angle_gamma   90.00000000
_symmetry_Int_Tables_number   1
_chemical_formula_structural   Cr2Fe3Ni49
_chemical_formula_sum   'Cr2 Fe3 Ni49'
_cell_volume   585.04252353
_cell_formula_units_Z   1
loop_
 _symmetry_equiv_pos_site_id
 _symmetry_equiv_pos_as_xyz
  1  'x, y, z'
loop_
 _atom_site_type_symbol
 _atom_site_label
 _atom_site_symmetry_multiplicity
 _atom_site_fract_x
 _atom_site_fract_y
 _atom_site_fract_z
 _atom_site_occupancy
  Ni  Ni0  1  0.00109783  0.00131855  1.00051781  1
  Ni  Ni1  1  0.16620479  0.16625813  0.16861390  1
  Ni  Ni2  1  0.00134487  0.00115170  0.33496074  1
  Ni  Ni3  1  0.99938123  0.33428898  1.00080240  1
  Ni  Ni4  1  0.16605010  0.50224570  0.16896397  1
  Ni  Ni5  1  0.00112598  0.33449680  0.33437586  1
  Ni  Ni6  1  0.00132875  0.66759434  1.00096093  1
  Ni  Ni7  1  0.16825696  0.83467518  0.16784309  1
  Ni  Ni8  1  0.00126562  0.66756706  0.33447505  1
  Ni  Ni9  1  0.33456013  0.99941286  1.00105233  1
  Ni  Ni10  1  0.50247756  0.16622974  0.16864460  1
  Ni  Ni11  1  0.33455842  0.00117615  0.33409666  1
  Cr  Cr12  1  0.33490949  0.33400228  0.00127671  1
  Ni  Ni13  1  0.50279145  0.50243834  0.16899154  1
  Ni  Ni14  1  0.33456350  0.33426545  0.33489617  1
  Ni  Ni15  1  0.33438127  0.66928971  1.00080132  1
  Ni  Ni16  1  0.50055541  0.83450990  0.16783964  1
  Ni  Ni17  1  0.33438426  0.66776529  0.33466153  1
  Ni  Ni18  1  0.66754425  0.00150697  1.00076929  1
  Ni  Ni19  1  0.83453713  0.16851427  0.16819725  1
  Ni  Ni20  1  0.66728114  0.00130087  0.33469179  1
  Ni  Ni21  1  0.66938795  0.33411391  1.00104930  1
  Ni  Ni22  1  0.83437409  0.50037897  0.16748946  1
  Ni  Ni23  1  0.66748960  0.33436077  0.33410954  1
  Ni  Ni24  1  0.66748951  0.66758340  1.00052976  1
  Fe  Fe25  1  0.83434395  0.83451105  0.16785146  1
  Ni  Ni26  1  0.66754938  0.66755804  0.33490013  1
  Ni  Ni27  1  0.16798932  0.16734249  0.50089130  1
  Ni  Ni28  1  0.00132995  0.00296640  0.66767507  1
  Ni  Ni29  1  0.16645674  0.16641042  0.83374917  1
  Ni  Ni30  1  0.16783897  0.49989915  0.49985980  1
  Ni  Ni31  1  1.00049451  0.33294805  0.66792143  1
  Ni  Ni32  1  0.16723832  0.50105777  0.83441676  1
  Ni  Ni33  1  0.16846098  0.83591859  0.50013200  1
  Cr  Cr34  1  1.00103223  0.66807895  0.66775368  1
  Ni  Ni35  1  0.16867241  0.83567185  0.83521286  1
  Ni  Ni36  1  0.50063365  0.16733630  0.50063265  1
  Ni  Ni37  1  0.33456520  1.00053371  0.66802451  1
  Ni  Ni38  1  0.50231108  0.16639700  0.83397458  1
  Ni  Ni39  1  0.50198494  0.50098455  0.50089389  1
  Fe  Fe40  1  0.33476602  0.33399692  0.66728531  1
  Ni  Ni41  1  0.50262357  0.50217507  0.83335276  1
  Ni  Ni42  1  0.50141099  0.83483094  0.50121995  1
  Ni  Ni43  1  0.33592987  0.66831939  0.66769923  1
  Ni  Ni44  1  0.50118320  0.83456126  0.83412912  1
  Fe  Fe45  1  0.83421357  0.16786186  0.50099926  1
  Ni  Ni46  1  0.66724568  0.00142469  0.66771209  1
  Ni  Ni47  1  0.83448072  0.16785175  0.83379210  1
  Ni  Ni48  1  0.83341504  0.50058783  0.50015750  1
  Ni  Ni49  1  0.66815417  0.33428975  0.66796081  1
  Ni  Ni50  1  0.83339150  0.49995817  0.83553541  1
  Ni  Ni51  1  0.83332464  0.83471110  0.49972044  1
  Ni  Ni52  1  0.66584215  0.66751698  0.66776668  1
  Ni  Ni53  1  0.83333030  0.83540901  0.83572372  1
" 