7512,Ni92Cr8_5,-202.841841317162, 187.489055182795,Ni92Cr8,"# generated using pymatgen
 data_Cr49Ni5
_symmetry_space_group_name_H-M   'P 1'
_cell_length_a   7.59406663
_cell_length_b   7.59406663
_cell_length_c   10.73963203
_cell_angle_alpha   90.00000000
_cell_angle_beta   90.00000000
_cell_angle_gamma   90.00000000
_symmetry_Int_Tables_number   1
_chemical_formula_structural   Cr49Ni5
_chemical_formula_sum   'Cr49 Ni5'
_cell_volume   619.35294717
_cell_formula_units_Z   1
loop_
 _symmetry_equiv_pos_site_id
 _symmetry_equiv_pos_as_xyz
  1  'x, y, z'
loop_
 _atom_site_type_symbol
 _atom_site_label
 _atom_site_symmetry_multiplicity
 _atom_site_fract_x
 _atom_site_fract_y
 _atom_site_fract_z
 _atom_site_occupancy
  Cr  Cr0  1  -0.00786173  -0.00835918  0.99124476  1
  Cr  Cr1  1  0.15762130  0.15863618  0.15826697  1
  Cr  Cr2  1  -0.00807009  -0.00800449  0.32531074  1
  Cr  Cr3  1  0.99123562  0.32610427  -0.00698463  1
  Cr  Cr4  1  0.15962893  0.49277078  0.15880098  1
  Cr  Cr5  1  0.98996435  0.32668593  0.32494879  1
  Cr  Cr6  1  0.98987003  0.65718856  0.99147790  1
  Cr  Cr7  1  0.15886393  0.82352052  0.15958361  1
  Cr  Cr8  1  0.99020046  0.65629733  0.32568366  1
  Cr  Cr9  1  0.32504393  -0.00768833  0.99047920  1
  Cr  Cr10  1  0.49237163  0.15980137  0.15826841  1
  Cr  Cr11  1  0.32506158  0.99097269  0.32571894  1
  Cr  Cr12  1  0.32575307  0.32523980  -0.00772494  1
  Ni  Ni13  1  0.49280533  0.49288747  0.15934089  1
  Cr  Cr14  1  0.32577530  0.32637338  0.32357550  1
  Cr  Cr15  1  0.32646495  0.65737631  -0.00804844  1
  Cr  Cr16  1  0.49089982  0.82253290  0.15960959  1
  Ni  Ni17  1  0.32612855  0.65717863  0.32363851  1
  Cr  Cr18  1  0.65773059  0.99089937  0.99161522  1
  Cr  Cr19  1  0.82489657  0.15910858  0.15791134  1
  Cr  Cr20  1  0.65794451  0.99127009  0.32494953  1
  Cr  Cr21  1  0.65794942  0.32734119  -0.00618732  1
  Ni  Ni22  1  0.82261938  0.49159273  0.15845346  1
  Cr  Cr23  1  0.65920530  0.32783483  0.32412169  1
  Cr  Cr24  1  0.65857911  0.65664349  -0.00642115  1
  Cr  Cr25  1  0.82508031  0.82456212  0.15749275  1
  Cr  Cr26  1  0.65817501  0.65580881  0.32365886  1
  Cr  Cr27  1  0.15790675  0.15885572  0.49093311  1
  Cr  Cr28  1  -0.00754912  0.99133557  0.65834051  1
  Cr  Cr29  1  0.15768929  0.15917233  0.82573626  1
  Cr  Cr30  1  0.15825283  0.49291402  0.49108449  1
  Cr  Cr31  1  0.99001450  0.32622320  0.65693575  1
  Cr  Cr32  1  0.15858417  0.49194467  0.82494082  1
  Cr  Cr33  1  0.15924771  0.82312674  0.48996153  1
  Cr  Cr34  1  0.99024903  0.65741282  0.65772696  1
  Cr  Cr35  1  0.15792075  0.82379224  0.82531857  1
  Cr  Cr36  1  0.49339726  0.15948728  0.49308752  1
  Cr  Cr37  1  0.32484294  -0.00799111  0.65871115  1
  Cr  Cr38  1  0.49356949  0.15973483  0.82361299  1
  Cr  Cr39  1  0.49235075  0.49160240  0.49198234  1
  Cr  Cr40  1  0.32607835  0.32418555  0.65910944  1
  Cr  Cr41  1  0.49206446  0.49066137  0.82406740  1
  Cr  Cr42  1  0.49074464  0.82371819  0.49025895  1
  Cr  Cr43  1  0.32505677  0.65873521  0.65862765  1
  Cr  Cr44  1  0.49209642  0.82445944  0.82496707  1
  Cr  Cr45  1  0.82360046  0.16042923  0.49263146  1
  Cr  Cr46  1  0.65762195  -0.00776265  0.65833002  1
  Cr  Cr47  1  0.82365338  0.15906366  0.82438739  1
  Ni  Ni48  1  0.82373346  0.49031246  0.49286951  1
  Ni  Ni49  1  0.65966345  0.32617885  0.65717520  1
  Cr  Cr50  1  0.82430309  0.49047832  0.82364982  1
  Cr  Cr51  1  0.82486482  0.82418469  0.49170462  1
  Cr  Cr52  1  0.65961203  0.65621184  0.65773093  1
  Cr  Cr53  1  0.82488883  0.82535341  0.82572938  1
" 