3335,Ni92Fe7Cr0_1,-239.683859345252, 183.646726517666,Ni92Fe7Cr0,"# generated using pymatgen
 data_Cr2Fe3Ni49
_symmetry_space_group_name_H-M   'P 1'
_cell_length_a   7.45098228
_cell_length_b   7.45098228
_cell_length_c   10.53728020
_cell_angle_alpha   90.00000000
_cell_angle_beta   90.00000000
_cell_angle_gamma   90.00000000
_symmetry_Int_Tables_number   1
_chemical_formula_structural   Cr2Fe3Ni49
_chemical_formula_sum   'Cr2 Fe3 Ni49'
_cell_volume   584.99962796
_cell_formula_units_Z   1
loop_
 _symmetry_equiv_pos_site_id
 _symmetry_equiv_pos_as_xyz
  1  'x, y, z'
loop_
 _atom_site_type_symbol
 _atom_site_label
 _atom_site_symmetry_multiplicity
 _atom_site_fract_x
 _atom_site_fract_y
 _atom_site_fract_z
 _atom_site_occupancy
  Ni  Ni0  1  0.00108006  0.00108468  0.00122544  1
  Ni  Ni1  1  0.16795353  0.16816516  0.16842383  1
  Ni  Ni2  1  0.00179448  1.00014182  0.33330174  1
  Ni  Ni3  1  0.00108974  0.33414103  1.00079780  1
  Ni  Ni4  1  0.16703220  0.50106126  0.16822757  1
  Ni  Ni5  1  0.00171759  0.33497673  0.33366218  1
  Ni  Ni6  1  1.00107497  0.66800873  1.00079733  1
  Ni  Ni7  1  0.16814701  0.83400916  0.16774220  1
  Ni  Ni8  1  1.00070474  0.66811560  0.33481024  1
  Ni  Ni9  1  0.33413885  0.00108939  1.00079756  1
  Ni  Ni10  1  0.50112926  0.16730871  0.16819295  1
  Ni  Ni11  1  0.33426546  0.00122818  0.33481607  1
  Ni  Ni12  1  0.33424768  0.33425446  1.00092442  1
  Fe  Fe13  1  0.50102203  0.50109021  0.16778790  1
  Ni  Ni14  1  0.33446149  0.33400749  0.33461819  1
  Ni  Ni15  1  0.33425634  0.66789118  1.00092322  1
  Ni  Ni16  1  0.50067622  0.83512801  0.16825420  1
  Ni  Ni17  1  0.33439148  0.66799981  0.33443200  1
  Ni  Ni18  1  0.66801518  1.00107461  1.00079764  1
  Ni  Ni19  1  0.83415405  0.16842170  0.16780897  1
  Ni  Ni20  1  0.66717750  1.00021095  0.33383629  1
  Ni  Ni21  1  0.66789719  0.33425892  1.00092394  1
  Ni  Ni22  1  0.83527062  0.50060916  0.16819435  1
  Ni  Ni23  1  0.66706075  0.33510139  0.33366814  1
  Ni  Ni24  1  0.66790325  0.66790142  1.00092275  1
  Ni  Ni25  1  0.83440999  0.83420255  0.16844997  1
  Ni  Ni26  1  0.66814116  0.66792284  0.33479558  1
  Fe  Fe27  1  0.17044416  0.16808679  0.50017298  1
  Cr  Cr28  1  0.00154418  1.00004391  0.66899668  1
  Ni  Ni29  1  0.16856873  0.16877992  0.83479452  1
  Fe  Fe30  1  0.16805480  0.50194950  0.50108643  1
  Ni  Ni31  1  0.00171879  0.33702255  0.66877560  1
  Ni  Ni32  1  0.16741913  0.50106039  0.83365106  1
  Ni  Ni33  1  0.16894465  0.83321683  0.50001593  1
  Ni  Ni34  1  1.00070801  0.66607361  0.66762223  1
  Ni  Ni35  1  0.16876089  0.83339706  0.83547495  1
  Ni  Ni36  1  0.49949386  0.16792072  0.50135481  1
  Ni  Ni37  1  0.33630591  0.00122622  0.66762177  1
  Ni  Ni38  1  0.50112768  0.16769385  0.83368607  1
  Ni  Ni39  1  0.50115268  0.50076085  0.50062003  1
  Ni  Ni40  1  0.33475250  0.33430381  0.66768995  1
  Ni  Ni41  1  0.50093340  0.50080340  0.83461608  1
  Ni  Ni42  1  0.50003819  0.83455177  0.50135447  1
  Ni  Ni43  1  0.33468063  0.66770542  0.66787438  1
  Ni  Ni44  1  0.50067646  0.83473706  0.83362523  1
  Cr  Cr45  1  0.83296744  0.16904051  0.50005550  1
  Ni  Ni46  1  0.66513757  1.00020991  0.66860018  1
  Ni  Ni47  1  0.83354044  0.16903733  0.83541077  1
  Ni  Ni48  1  0.83448856  0.50239783  0.50135478  1
  Ni  Ni49  1  0.66676916  0.33539288  0.66864061  1
  Ni  Ni50  1  0.83488083  0.50061008  0.83368635  1
  Ni  Ni51  1  0.83425197  0.83157254  0.50001451  1
  Ni  Ni52  1  0.66784835  0.66763003  0.66751491  1
  Ni  Ni53  1  0.83379390  0.83358573  0.83477247  1
" 