5267,Ni92Fe7Cr0_18,-239.716059637889, 183.555813831444,Ni92Fe7Cr0,"# generated using pymatgen
 data_Cr2Fe3Ni49
_symmetry_space_group_name_H-M   'P 1'
_cell_length_a   7.45268765
_cell_length_b   7.45268765
_cell_length_c   10.53969195
_cell_angle_alpha   90.00000000
_cell_angle_beta   90.00000000
_cell_angle_gamma   90.00000000
_symmetry_Int_Tables_number   1
_chemical_formula_structural   Cr2Fe3Ni49
_chemical_formula_sum   'Cr2 Fe3 Ni49'
_cell_volume   585.40140089
_cell_formula_units_Z   1
loop_
 _symmetry_equiv_pos_site_id
 _symmetry_equiv_pos_as_xyz
  1  'x, y, z'
loop_
 _atom_site_type_symbol
 _atom_site_label
 _atom_site_symmetry_multiplicity
 _atom_site_fract_x
 _atom_site_fract_y
 _atom_site_fract_z
 _atom_site_occupancy
  Ni  Ni0  1  0.00131187  0.00101799  1.00055638  1
  Ni  Ni1  1  0.16881928  0.16731443  0.16784174  1
  Ni  Ni2  1  0.00115414  1.00037620  0.33439451  1
  Ni  Ni3  1  0.00113406  0.33445950  0.00149515  1
  Ni  Ni4  1  0.16756130  0.50082308  0.16807935  1
  Fe  Fe5  1  0.00140191  0.33444970  0.33463290  1
  Ni  Ni6  1  1.00080349  0.66739850  0.00107149  1
  Ni  Ni7  1  0.16701370  0.83473068  0.16766371  1
  Ni  Ni8  1  0.00229656  0.66821814  0.33425351  1
  Ni  Ni9  1  0.33400702  0.00121863  0.00136770  1
  Ni  Ni10  1  0.50038384  0.16772260  0.16766575  1
  Ni  Ni11  1  0.33354933  0.00169428  0.33416091  1
  Ni  Ni12  1  0.33405703  0.33412855  1.00059004  1
  Ni  Ni13  1  0.50030362  0.49934408  0.16659973  1
  Ni  Ni14  1  0.33490980  0.33415724  0.33450429  1
  Ni  Ni15  1  0.33419448  0.66752262  0.00151194  1
  Ni  Ni16  1  0.50045498  0.83584777  0.16762648  1
  Ni  Ni17  1  0.33212129  0.66703365  0.33421394  1
  Ni  Ni18  1  0.66761117  1.00094441  0.00118413  1
  Fe  Fe19  1  0.83424423  0.16724947  0.16723989  1
  Ni  Ni20  1  0.66820963  0.00307355  0.33443898  1
  Ni  Ni21  1  0.66771620  0.33461180  0.00107396  1
  Ni  Ni22  1  0.83503801  0.50101370  0.16700488  1
  Ni  Ni23  1  0.66710101  0.33290720  0.33410679  1
  Ni  Ni24  1  0.66788282  0.66735145  0.00098486  1
  Ni  Ni25  1  0.83537324  0.83474316  0.16662269  1
  Cr  Cr26  1  0.66832641  0.66663409  0.33418817  1
  Ni  Ni27  1  0.16733162  0.16801187  0.50024857  1
  Ni  Ni28  1  0.99943340  0.00119497  0.66779570  1
  Ni  Ni29  1  0.16671898  0.16862417  0.83491481  1
  Ni  Ni30  1  0.16810301  0.50143074  0.50072733  1
  Ni  Ni31  1  1.00083517  0.33416413  0.66677341  1
  Ni  Ni32  1  0.16758315  0.50097911  0.83411011  1
  Ni  Ni33  1  0.16549366  0.83350981  0.49973006  1
  Ni  Ni34  1  1.00092379  0.66752057  0.66755962  1
  Ni  Ni35  1  0.16638564  0.83330666  0.83556194  1
  Ni  Ni36  1  0.50190130  0.16938808  0.50011651  1
  Cr  Cr37  1  0.33333986  0.00180994  0.66796996  1
  Ni  Ni38  1  0.50210528  0.16863171  0.83519365  1
  Ni  Ni39  1  0.50014919  0.49875919  0.50182331  1
  Ni  Ni40  1  0.33419961  0.33583180  0.66780047  1
  Ni  Ni41  1  0.50111884  0.50073874  0.83446313  1
  Fe  Fe42  1  0.50083263  0.83427754  0.50084639  1
  Ni  Ni43  1  0.33391670  0.66574162  0.66720790  1
  Ni  Ni44  1  0.50224555  0.83351135  0.83484095  1
  Ni  Ni45  1  0.83362845  0.16696403  0.50033703  1
  Ni  Ni46  1  0.66959062  0.00141869  0.66714954  1
  Ni  Ni47  1  0.83403228  0.16743290  0.83447102  1
  Ni  Ni48  1  0.83468995  0.50062823  0.50186117  1
  Ni  Ni49  1  0.66787430  0.33434390  0.66755493  1
  Ni  Ni50  1  0.83419245  0.50113137  0.83401556  1
  Ni  Ni51  1  0.83609971  0.83527673  0.50214655  1
  Ni  Ni52  1  0.66804026  0.66709349  0.66760864  1
  Ni  Ni53  1  0.83427822  0.83431625  0.83412194  1
" 