2832,Ni92Fe4Cr2_5,-239.323572739729, 179.858052594244,Ni92Fe4Cr2,"# generated using pymatgen
 data_CrFeNi25
_symmetry_space_group_name_H-M   'P 1'
_cell_length_a   7.45586699
_cell_length_b   7.45586699
_cell_length_c   10.54418821
_cell_angle_alpha   90.00000000
_cell_angle_beta   90.00000000
_cell_angle_gamma   90.00000000
_symmetry_Int_Tables_number   1
_chemical_formula_structural   CrFeNi25
_chemical_formula_sum   'Cr2 Fe2 Ni50'
_cell_volume   586.15092236
_cell_formula_units_Z   2
loop_
 _symmetry_equiv_pos_site_id
 _symmetry_equiv_pos_as_xyz
  1  'x, y, z'
loop_
 _atom_site_type_symbol
 _atom_site_label
 _atom_site_symmetry_multiplicity
 _atom_site_fract_x
 _atom_site_fract_y
 _atom_site_fract_z
 _atom_site_occupancy
  Ni  Ni0  1  1.00071059  0.00078875  0.00124514  1
  Ni  Ni1  1  0.16593861  0.16714049  0.16763556  1
  Ni  Ni2  1  0.00221423  0.00079864  0.33384899  1
  Ni  Ni3  1  0.00116070  0.33391937  1.00056870  1
  Ni  Ni4  1  0.16710106  0.50092216  0.16666976  1
  Ni  Ni5  1  0.00135817  0.33411909  0.33422973  1
  Ni  Ni6  1  0.00114175  0.66752508  1.00033085  1
  Ni  Ni7  1  0.16735798  0.83417310  0.16763223  1
  Ni  Ni8  1  0.00132441  0.66734564  0.33446153  1
  Ni  Ni9  1  0.33300014  0.99971952  0.99944935  1
  Cr  Cr10  1  0.49913733  0.16871140  0.16607753  1
  Ni  Ni11  1  0.33163434  0.99965758  0.33569670  1
  Ni  Ni12  1  0.33289071  0.33535838  0.99986504  1
  Ni  Ni13  1  0.50101906  0.50236522  0.16763286  1
  Ni  Ni14  1  0.33266474  0.33559090  0.33494159  1
  Ni  Ni15  1  0.33401360  0.66720715  0.00093747  1
  Ni  Ni16  1  0.49924326  0.83129301  0.16614661  1
  Ni  Ni17  1  0.33379251  0.66698570  0.33386784  1
  Ni  Ni18  1  0.66857938  0.99967651  0.99936623  1
  Ni  Ni19  1  0.83704546  0.16894439  0.16612187  1
  Cr  Cr20  1  0.66909988  0.99950788  0.33478710  1
  Ni  Ni21  1  0.66820736  0.33491015  0.99981874  1
  Ni  Ni22  1  0.83414404  0.50094881  0.16763289  1
  Ni  Ni23  1  0.66825424  0.33633180  0.33533602  1
  Ni  Ni24  1  0.66713914  0.66764782  0.00089569  1
  Ni  Ni25  1  0.83565291  0.83236768  0.16613907  1
  Ni  Ni26  1  0.66711710  0.66617926  0.33422815  1
  Ni  Ni27  1  0.16730761  0.16736097  0.50034022  1
  Ni  Ni28  1  0.99984558  0.00092443  0.66711538  1
  Ni  Ni29  1  0.16727656  0.16658537  0.83437746  1
  Ni  Ni30  1  0.16720503  0.50094378  0.50144411  1
  Ni  Ni31  1  0.00140551  0.33346371  0.66742894  1
  Fe  Fe32  1  0.16719628  0.50099495  0.83389406  1
  Ni  Ni33  1  0.16713879  0.83395751  0.50057507  1
  Ni  Ni34  1  0.00140177  0.66786219  0.66742495  1
  Ni  Ni35  1  0.16708331  0.83475901  0.83410740  1
  Ni  Ni36  1  0.49945540  0.16870250  0.50225096  1
  Fe  Fe37  1  0.33377712  1.00068373  0.66757083  1
  Ni  Ni38  1  0.50028014  0.16806885  0.83389305  1
  Ni  Ni39  1  0.50087346  0.50079886  0.50025937  1
  Ni  Ni40  1  0.33396670  0.33500500  0.66742403  1
  Ni  Ni41  1  0.50174652  0.50076968  0.83438313  1
  Ni  Ni42  1  0.49946262  0.83274341  0.50182038  1
  Ni  Ni43  1  0.33416435  0.66651432  0.66741770  1
  Ni  Ni44  1  0.50028072  0.83340201  0.83432452  1
  Ni  Ni45  1  0.83542289  0.16875435  0.50170320  1
  Ni  Ni46  1  0.66815979  1.00073321  0.66793483  1
  Ni  Ni47  1  0.83466620  0.16799027  0.83436556  1
  Ni  Ni48  1  0.83415073  0.50095804  0.50085598  1
  Ni  Ni49  1  0.66691597  0.33356890  0.66713257  1
  Ni  Ni50  1  0.83329424  0.50095283  0.83375057  1
  Ni  Ni51  1  0.83552160  0.83258151  0.50188405  1
  Ni  Ni52  1  0.66672062  0.66795454  0.66712012  1
  Ni  Ni53  1  0.83482628  0.83331910  0.83412683  1
" 