1535,Ni92Cr8_2,-202.862301538697, 187.601815241694,Ni92Cr8,"# generated using pymatgen
 data_Cr49Ni5
_symmetry_space_group_name_H-M   'P 1'
_cell_length_a   7.59354228
_cell_length_b   7.59354228
_cell_length_c   10.73889047
_cell_angle_alpha   90.00000000
_cell_angle_beta   90.00000000
_cell_angle_gamma   90.00000000
_symmetry_Int_Tables_number   1
_chemical_formula_structural   Cr49Ni5
_chemical_formula_sum   'Cr49 Ni5'
_cell_volume   619.22466013
_cell_formula_units_Z   1
loop_
 _symmetry_equiv_pos_site_id
 _symmetry_equiv_pos_as_xyz
  1  'x, y, z'
loop_
 _atom_site_type_symbol
 _atom_site_label
 _atom_site_symmetry_multiplicity
 _atom_site_fract_x
 _atom_site_fract_y
 _atom_site_fract_z
 _atom_site_occupancy
  Cr  Cr0  1  -0.00628389  -0.00822127  0.99133651  1
  Ni  Ni1  1  0.15597415  0.15584397  0.15983051  1
  Ni  Ni2  1  0.99124965  -0.00536848  0.32494271  1
  Cr  Cr3  1  -0.00774399  0.32369628  -0.00666621  1
  Cr  Cr4  1  0.15810600  0.48977269  0.15882200  1
  Cr  Cr5  1  0.99121166  0.32305950  0.32444354  1
  Cr  Cr6  1  -0.00650882  0.65852966  0.98921269  1
  Cr  Cr7  1  0.15649634  0.82614720  0.15967084  1
  Cr  Cr8  1  -0.00775470  0.65864624  0.32550599  1
  Cr  Cr9  1  0.32343216  0.99116205  -0.00807143  1
  Cr  Cr10  1  0.48984457  0.15810475  0.15722515  1
  Cr  Cr11  1  0.32287953  -0.00775788  0.32321968  1
  Cr  Cr12  1  0.32359407  0.32366278  -0.00644038  1
  Cr  Cr13  1  0.49167895  0.49164705  0.15847444  1
  Cr  Cr14  1  0.32414725  0.32407332  0.32373471  1
  Cr  Cr15  1  0.32414939  0.65976935  0.99124636  1
  Cr  Cr16  1  0.49261380  0.82537438  0.15905976  1
  Cr  Cr17  1  0.32508282  0.65838331  0.32513196  1
  Cr  Cr18  1  0.65770986  -0.00788324  0.99080723  1
  Cr  Cr19  1  0.82603614  0.15672019  0.15891259  1
  Cr  Cr20  1  0.65890866  -0.00645360  0.32691320  1
  Cr  Cr21  1  0.65877130  0.32475572  -0.00789375  1
  Cr  Cr22  1  0.82537165  0.49269495  0.15699563  1
  Cr  Cr23  1  0.65933805  0.32452397  0.32605855  1
  Cr  Cr24  1  0.65802377  0.65834306  -0.00785113  1
  Cr  Cr25  1  0.82565558  0.82586691  0.15950981  1
  Cr  Cr26  1  0.65788533  0.65761619  0.32525312  1
  Cr  Cr27  1  0.15780842  0.15841358  0.49111889  1
  Cr  Cr28  1  -0.00819447  0.99164320  0.65817971  1
  Cr  Cr29  1  0.15925016  0.15866684  0.82467259  1
  Cr  Cr30  1  0.15960371  0.49053149  0.49340371  1
  Cr  Cr31  1  0.99110882  0.32384047  0.65717070  1
  Cr  Cr32  1  0.15927380  0.49092946  0.82304188  1
  Cr  Cr33  1  0.15702845  0.82608542  0.49047915  1
  Cr  Cr34  1  -0.00726788  0.65937088  0.66041861  1
  Ni  Ni35  1  0.15914101  0.82559791  0.82510029  1
  Cr  Cr36  1  0.49074362  0.15914854  0.49401922  1
  Cr  Cr37  1  0.32408874  0.99103270  0.66016119  1
  Cr  Cr38  1  0.49090859  0.15959051  0.82384897  1
  Cr  Cr39  1  0.48996314  0.49067141  0.49274857  1
  Ni  Ni40  1  0.32488321  0.32456363  0.65843605  1
  Cr  Cr41  1  0.49082988  0.49004843  0.82396834  1
  Cr  Cr42  1  0.49139272  0.82551966  0.49069203  1
  Cr  Cr43  1  0.32417910  0.65939116  0.65872604  1
  Cr  Cr44  1  0.49191009  0.82574710  0.82525171  1
  Ni  Ni45  1  0.82691078  0.15725311  0.48992509  1
  Cr  Cr46  1  0.65954004  -0.00729716  0.65679555  1
  Cr  Cr47  1  0.82490205  0.15821226  0.82485392  1
  Cr  Cr48  1  0.82617478  0.49151207  0.49169705  1
  Cr  Cr49  1  0.65951429  0.32411948  0.65663782  1
  Cr  Cr50  1  0.82517940  0.49150133  0.82637262  1
  Cr  Cr51  1  0.82630882  0.82718915  0.48960290  1
  Cr  Cr52  1  0.65880358  0.65881074  0.65772286  1
  Cr  Cr53  1  0.82637479  0.82542647  0.82579936  1
" 