4256,Ni92Cr8_8,-202.789669592663, 185.712413997226,Ni92Cr8,"# generated using pymatgen
 data_Cr49Ni5
_symmetry_space_group_name_H-M   'P 1'
_cell_length_a   7.59545085
_cell_length_b   7.59545085
_cell_length_c   10.74158961
_cell_angle_alpha   90.00000000
_cell_angle_beta   90.00000000
_cell_angle_gamma   90.00000000
_symmetry_Int_Tables_number   1
_chemical_formula_structural   Cr49Ni5
_chemical_formula_sum   'Cr49 Ni5'
_cell_volume   619.69168872
_cell_formula_units_Z   1
loop_
 _symmetry_equiv_pos_site_id
 _symmetry_equiv_pos_as_xyz
  1  'x, y, z'
loop_
 _atom_site_type_symbol
 _atom_site_label
 _atom_site_symmetry_multiplicity
 _atom_site_fract_x
 _atom_site_fract_y
 _atom_site_fract_z
 _atom_site_occupancy
  Cr  Cr0  1  -0.00845195  -0.00810892  0.99119982  1
  Cr  Cr1  1  0.15772062  0.15762267  0.15880541  1
  Ni  Ni2  1  -0.00758575  -0.00744518  0.32606342  1
  Cr  Cr3  1  -0.00845203  0.32522296  -0.00810450  1
  Cr  Cr4  1  0.15827038  0.49193925  0.15786705  1
  Cr  Cr5  1  -0.00768417  0.32336970  0.32530158  1
  Cr  Cr6  1  0.99154025  0.65752707  0.99154723  1
  Cr  Cr7  1  0.15875328  0.82507968  0.15840879  1
  Cr  Cr8  1  0.99120429  0.65861245  0.32453503  1
  Cr  Cr9  1  0.32599608  0.99077426  -0.00733379  1
  Cr  Cr10  1  0.49189008  0.15713942  0.15786758  1
  Cr  Cr11  1  0.32414498  0.99154358  0.32453189  1
  Cr  Cr12  1  0.32485041  0.32519387  0.99042990  1
  Cr  Cr13  1  0.49131786  0.49239575  0.15839376  1
  Cr  Cr14  1  0.32348957  0.32383186  0.32622489  1
  Cr  Cr15  1  0.32597002  0.65867387  -0.00845168  1
  Ni  Ni16  1  0.49164334  0.82477884  0.15811764  1
  Cr  Cr17  1  0.32572023  0.65926803  0.32398997  1
  Cr  Cr18  1  0.65709780  0.99076755  -0.00733462  1
  Cr  Cr19  1  0.82503181  0.15762303  0.15840995  1
  Cr  Cr20  1  0.65818082  0.99043121  0.32341628  1
  Cr  Cr21  1  0.65824433  0.32520056  0.99043070  1
  Cr  Cr22  1  0.82505363  0.49136626  0.15844210  1
  Cr  Cr23  1  0.65883702  0.32494645  0.32510897  1
  Cr  Cr24  1  0.65713299  0.65867379  -0.00845169  1
  Cr  Cr25  1  0.82457484  0.82565127  0.15898258  1
  Cr  Cr26  1  0.65771899  0.65926443  0.32433928  1
  Ni  Ni27  1  0.15628426  0.15647504  0.49154669  1
  Ni  Ni28  1  -0.00758492  -0.00758011  0.65717490  1
  Cr  Cr29  1  0.15772036  0.15726152  0.82428895  1
  Cr  Cr30  1  0.15878573  0.49070020  0.49097265  1
  Cr  Cr31  1  -0.00768338  0.32303326  0.65744459  1
  Cr  Cr32  1  0.15987557  0.49211996  0.82580210  1
  Cr  Cr33  1  0.15655968  0.82726572  0.49212233  1
  Cr  Cr34  1  0.99120429  0.65928704  0.65855935  1
  Cr  Cr35  1  0.15714832  0.82526167  0.82410923  1
  Cr  Cr36  1  0.49046675  0.15889921  0.49154758  1
  Cr  Cr37  1  0.32303255  -0.00768250  0.65744298  1
  Cr  Cr38  1  0.49189008  0.15998993  0.82522738  1
  Cr  Cr39  1  0.49149843  0.49115557  0.49194351  1
  Cr  Cr40  1  0.32460030  0.32460688  0.65799023  1
  Ni  Ni41  1  0.49164291  0.49150474  0.82483364  1
  Cr  Cr42  1  0.49149680  0.82458657  0.49115100  1
  Cr  Cr43  1  0.32572027  0.65772052  0.65910484  1
  Cr  Cr44  1  0.49131687  0.82368282  0.82504899  1
  Cr  Cr45  1  0.82703293  0.15667289  0.49154665  1
  Cr  Cr46  1  0.65929327  0.99120355  0.65855938  1
  Cr  Cr47  1  0.82503207  0.15726205  0.82468440  1
  Cr  Cr48  1  0.82435731  0.49172638  0.49097262  1
  Cr  Cr49  1  0.65772624  0.32571992  0.65910536  1
  Cr  Cr50  1  0.82345213  0.49154661  0.82522711  1
  Cr  Cr51  1  0.82658382  0.82624079  0.49212239  1
  Cr  Cr52  1  0.65771896  0.65772058  0.65875553  1
  Cr  Cr53  1  0.82617611  0.82583287  0.82353544  1
" 