1623,Ni92Cr8_15,-202.825573822574, 187.06304885721,Ni92Cr8,"# generated using pymatgen
 data_Cr49Ni5
_symmetry_space_group_name_H-M   'P 1'
_cell_length_a   7.59596105
_cell_length_b   7.59596105
_cell_length_c   10.74231114
_cell_angle_alpha   90.00000000
_cell_angle_beta   90.00000000
_cell_angle_gamma   90.00000000
_symmetry_Int_Tables_number   1
_chemical_formula_structural   Cr49Ni5
_chemical_formula_sum   'Cr49 Ni5'
_cell_volume   619.81657391
_cell_formula_units_Z   1
loop_
 _symmetry_equiv_pos_site_id
 _symmetry_equiv_pos_as_xyz
  1  'x, y, z'
loop_
 _atom_site_type_symbol
 _atom_site_label
 _atom_site_symmetry_multiplicity
 _atom_site_fract_x
 _atom_site_fract_y
 _atom_site_fract_z
 _atom_site_occupancy
  Cr  Cr0  1  0.99101434  0.99039866  0.99065462  1
  Cr  Cr1  1  0.15712945  0.15839549  0.15911388  1
  Cr  Cr2  1  -0.00836672  -0.00711118  0.32429809  1
  Cr  Cr3  1  0.99050110  0.32496643  -0.00794530  1
  Cr  Cr4  1  0.15713683  0.49130558  0.15911355  1
  Ni  Ni5  1  -0.00823506  0.32509321  0.32474636  1
  Cr  Cr6  1  0.99041579  0.65917791  0.99046776  1
  Cr  Cr7  1  0.15890145  0.82484200  0.15817998  1
  Cr  Cr8  1  0.99103310  0.65668746  0.32448391  1
  Cr  Cr9  1  0.32465873  -0.00783302  -0.00715471  1
  Cr  Cr10  1  0.49256689  0.15839610  0.15676873  1
  Cr  Cr11  1  0.32503630  -0.00818749  0.32387952  1
  Cr  Cr12  1  0.32634270  0.32436698  0.99067023  1
  Cr  Cr13  1  0.49255953  0.49130498  0.15676897  1
  Cr  Cr14  1  0.32335339  0.32436691  0.32568999  1
  Cr  Cr15  1  0.32465867  0.65800884  -0.00836109  1
  Cr  Cr16  1  0.49079360  0.82484200  0.15891060  1
  Cr  Cr17  1  0.32503637  0.65836356  0.32508706  1
  Cr  Cr18  1  0.65886795  -0.00791751  0.99125852  1
  Cr  Cr19  1  0.82484758  0.16015917  0.15854516  1
  Cr  Cr20  1  0.65787371  0.99120503  0.32490010  1
  Ni  Ni21  1  0.65778816  0.32509455  -0.00823466  1
  Cr  Cr22  1  0.82484758  0.48953433  0.15854576  1
  Cr  Cr23  1  0.65954992  0.32496821  0.32467044  1
  Cr  Cr24  1  0.65946681  0.65749501  0.99107244  1
  Cr  Cr25  1  0.82484760  0.82484893  0.15812820  1
  Cr  Cr26  1  0.65847357  0.65837032  0.32508665  1
  Cr  Cr27  1  0.15632047  0.15830037  0.49138497  1
  Ni  Ni28  1  0.98868893  0.99035849  0.65913810  1
  Cr  Cr29  1  0.15731636  0.15732125  0.82403912  1
  Cr  Cr30  1  0.15749072  0.49095018  0.49058162  1
  Cr  Cr31  1  -0.00781612  0.32366553  0.65740220  1
  Cr  Cr32  1  0.15848998  0.49192663  0.82484578  1
  Cr  Cr33  1  0.15809227  0.82529339  0.49195710  1
  Cr  Cr34  1  0.99041520  0.66028770  0.65959154  1
  Cr  Cr35  1  0.15624625  0.82529637  0.82440478  1
  Cr  Cr36  1  0.49256848  0.15713219  0.49256169  1
  Cr  Cr37  1  0.32484757  -0.00764529  0.65781853  1
  Cr  Cr38  1  0.49318563  0.15848897  0.82521567  1
  Cr  Cr39  1  0.49139429  0.49211567  0.49175510  1
  Cr  Cr40  1  0.32484768  0.32474464  0.65818293  1
  Cr  Cr41  1  0.49201594  0.49076162  0.82601908  1
  Cr  Cr42  1  0.49195995  0.82529560  0.49159400  1
  Cr  Cr43  1  0.32484755  0.65744284  0.65781795  1
  Cr  Cr44  1  0.49309036  0.82529410  0.82404199  1
  Cr  Cr45  1  0.82565461  0.15773874  0.49195336  1
  Ni  Ni46  1  0.66100598  0.99035834  0.65904110  1
  Cr  Cr47  1  0.82404235  0.15625225  0.82404500  1
  Cr  Cr48  1  0.82565879  0.49034089  0.48961282  1
  Cr  Cr49  1  0.65751187  0.32366551  0.65823439  1
  Cr  Cr50  1  0.82403811  0.49183171  0.82638256  1
  Cr  Cr51  1  0.82449039  0.82646267  0.49354125  1
  Cr  Cr52  1  0.65927939  0.66028635  0.65838439  1
  Ni  Ni53  1  0.82499221  0.82666536  0.82288273  1
" 