3684,Ni92Fe2Cr4_14,-237.460144034762, 173.650009948968,Ni92Fe2Cr4,"# generated using pymatgen
 data_Cr4FeNi49
_symmetry_space_group_name_H-M   'P 1'
_cell_length_a   7.46088606
_cell_length_b   7.46088606
_cell_length_c   10.55128625
_cell_angle_alpha   90.00000000
_cell_angle_beta   90.00000000
_cell_angle_gamma   90.00000000
_symmetry_Int_Tables_number   1
_chemical_formula_structural   Cr4FeNi49
_chemical_formula_sum   'Cr4 Fe1 Ni49'
_cell_volume   587.33545790
_cell_formula_units_Z   1
loop_
 _symmetry_equiv_pos_site_id
 _symmetry_equiv_pos_as_xyz
  1  'x, y, z'
loop_
 _atom_site_type_symbol
 _atom_site_label
 _atom_site_symmetry_multiplicity
 _atom_site_fract_x
 _atom_site_fract_y
 _atom_site_fract_z
 _atom_site_occupancy
  Ni  Ni0  1  0.99937851  0.99961484  0.99938313  1
  Cr  Cr1  1  0.16741441  0.16653972  0.16727101  1
  Ni  Ni2  1  0.99836743  0.00043132  0.33418606  1
  Ni  Ni3  1  0.99957045  0.33450148  0.99956290  1
  Ni  Ni4  1  0.16707078  0.50253741  0.16776117  1
  Ni  Ni5  1  0.00059296  0.33369697  0.33404338  1
  Ni  Ni6  1  0.00059079  0.66712307  0.00058908  1
  Ni  Ni7  1  0.16701000  0.83201474  0.16698071  1
  Ni  Ni8  1  0.00059020  0.66711098  0.33195744  1
  Ni  Ni9  1  0.33478168  0.99960117  0.99938235  1
  Ni  Ni10  1  0.50210407  0.16710172  0.16716901  1
  Ni  Ni11  1  0.33547304  0.00051134  0.33388151  1
  Ni  Ni12  1  0.33458495  0.33450994  0.99956172  1
  Ni  Ni13  1  0.50072736  0.50056993  0.16734590  1
  Ni  Ni14  1  0.33435070  0.33472218  0.33503174  1
  Ni  Ni15  1  0.33357621  0.66712822  0.00058921  1
  Ni  Ni16  1  0.50036926  0.83356690  0.16781001  1
  Ni  Ni17  1  0.33427287  0.66600066  0.33290938  1
  Ni  Ni18  1  0.66707880  0.00062364  0.00077796  1
  Ni  Ni19  1  0.83189353  0.16704084  0.16758217  1
  Ni  Ni20  1  0.66740375  0.00050966  0.33374856  1
  Ni  Ni21  1  0.66708389  0.33329815  1.00041129  1
  Ni  Ni22  1  0.83344025  0.50080655  0.16721609  1
  Ni  Ni23  1  0.66629624  0.33250001  0.33293185  1
  Ni  Ni24  1  0.66707181  0.66731720  1.00017908  1
  Ni  Ni25  1  0.83386033  0.83339143  0.16752430  1
  Ni  Ni26  1  0.66637639  0.66823186  0.33332342  1
  Ni  Ni27  1  0.16765204  0.16796894  0.50077748  1
  Ni  Ni28  1  0.00107703  0.00122988  0.66766425  1
  Ni  Ni29  1  0.16724507  0.16646503  0.83287848  1
  Ni  Ni30  1  0.16921183  0.49893491  0.50017842  1
  Ni  Ni31  1  0.00157327  0.33307522  0.66763080  1
  Ni  Ni32  1  0.16706992  0.50062688  0.83329889  1
  Cr  Cr33  1  0.16640374  0.83411625  0.50041108  1
  Ni  Ni34  1  0.00055493  0.66693282  0.66869427  1
  Ni  Ni35  1  0.16701080  0.83414696  0.83384538  1
  Ni  Ni36  1  0.49938908  0.16851369  0.49938569  1
  Ni  Ni37  1  0.33275450  0.00131575  0.66797505  1
  Ni  Ni38  1  0.49938641  0.16790183  0.83468274  1
  Ni  Ni39  1  0.49903517  0.49960427  0.50058934  1
  Ni  Ni40  1  0.33337224  0.33410309  0.66663946  1
  Ni  Ni41  1  0.50076625  0.50039104  0.83330176  1
  Fe  Fe42  1  0.50094315  0.83318333  0.49956514  1
  Ni  Ni43  1  0.33430911  0.66581911  0.66774163  1
  Ni  Ni44  1  0.49938850  0.83294443  0.83386273  1
  Ni  Ni45  1  0.83420049  0.16588513  0.49938539  1
  Cr  Cr46  1  0.66744745  1.00038199  0.66682697  1
  Ni  Ni47  1  0.83460644  0.16784422  0.83427270  1
  Cr  Cr48  1  0.83313532  0.50088271  0.50079509  1
  Ni  Ni49  1  0.66629352  0.33462635  0.66789767  1
  Ni  Ni50  1  0.83340274  0.50062603  0.83343310  1
  Ni  Ni51  1  0.83352448  0.83468721  0.49956426  1
  Ni  Ni52  1  0.66637489  0.66632026  0.66774142  1
  Ni  Ni53  1  0.83483885  0.83276860  0.83414824  1
" 