8507,Ni92Fe2Cr4_19,-237.432985354755, 172.221175537985,Ni92Fe2Cr4,"# generated using pymatgen
 data_Cr4FeNi49
_symmetry_space_group_name_H-M   'P 1'
_cell_length_a   7.46195222
_cell_length_b   7.46195222
_cell_length_c   10.55279403
_cell_angle_alpha   90.00000000
_cell_angle_beta   90.00000000
_cell_angle_gamma   90.00000000
_symmetry_Int_Tables_number   1
_chemical_formula_structural   Cr4FeNi49
_chemical_formula_sum   'Cr4 Fe1 Ni49'
_cell_volume   587.58728524
_cell_formula_units_Z   1
loop_
 _symmetry_equiv_pos_site_id
 _symmetry_equiv_pos_as_xyz
  1  'x, y, z'
loop_
 _atom_site_type_symbol
 _atom_site_label
 _atom_site_symmetry_multiplicity
 _atom_site_fract_x
 _atom_site_fract_y
 _atom_site_fract_z
 _atom_site_occupancy
  Ni  Ni0  1  1.00007722  1.00011441  0.00067682  1
  Ni  Ni1  1  0.16604211  0.16562325  0.16650408  1
  Ni  Ni2  1  0.00110828  0.99979303  0.33362384  1
  Ni  Ni3  1  0.00148983  0.33291043  0.00173458  1
  Ni  Ni4  1  0.16599798  0.50155046  0.16572759  1
  Ni  Ni5  1  0.99861208  0.33412529  0.33362227  1
  Ni  Ni6  1  0.00152177  0.66806474  0.00093098  1
  Ni  Ni7  1  0.16725242  0.83376087  0.16728905  1
  Ni  Ni8  1  0.00121630  0.66701617  0.33386573  1
  Ni  Ni9  1  0.33371139  1.00026862  0.00115495  1
  Ni  Ni10  1  0.50033817  0.16670618  0.16509115  1
  Ni  Ni11  1  0.33242414  0.99823594  0.33361565  1
  Ni  Ni12  1  0.33354158  0.33396829  1.00026061  1
  Ni  Ni13  1  0.50131427  0.50127369  0.16607986  1
  Cr  Cr14  1  0.33347673  0.33347931  0.33326168  1
  Ni  Ni15  1  0.33338110  0.66681237  1.00010871  1
  Ni  Ni16  1  0.49890850  0.83295080  0.16623796  1
  Ni  Ni17  1  0.33273398  0.66800760  0.33387471  1
  Ni  Ni18  1  0.66723646  1.00024579  0.99968257  1
  Ni  Ni19  1  0.83458812  0.16798856  0.16596478  1
  Cr  Cr20  1  0.66707319  0.00146520  0.33385826  1
  Ni  Ni21  1  0.66596504  0.33247121  0.00144058  1
  Ni  Ni22  1  0.83373299  0.50017039  0.16753480  1
  Ni  Ni23  1  0.66845023  0.33462150  0.33387561  1
  Ni  Ni24  1  0.66615461  0.66825088  0.00230715  1
  Ni  Ni25  1  0.83487968  0.83281774  0.16575255  1
  Fe  Fe26  1  0.66728604  0.66627681  0.33328011  1
  Ni  Ni27  1  0.16610249  0.16569637  0.50071877  1
  Ni  Ni28  1  1.00007539  1.00010479  0.66670316  1
  Ni  Ni29  1  0.16716382  0.16664408  0.83374259  1
  Ni  Ni30  1  0.16605635  0.50137286  0.50169590  1
  Ni  Ni31  1  0.00152619  0.33287260  0.66563434  1
  Ni  Ni32  1  0.16858949  0.50027332  0.83351713  1
  Ni  Ni33  1  0.16725395  0.83386236  0.50022787  1
  Ni  Ni34  1  0.00307058  0.66807953  0.66621237  1
  Ni  Ni35  1  0.16736708  0.83411914  0.83351646  1
  Ni  Ni36  1  0.50018177  0.16674497  0.50234876  1
  Ni  Ni37  1  0.33372771  1.00024715  0.66623907  1
  Ni  Ni38  1  0.50006056  0.16678844  0.83351945  1
  Ni  Ni39  1  0.50033219  0.50029213  0.50032131  1
  Ni  Ni40  1  0.33353289  0.33395508  0.66713286  1
  Ni  Ni41  1  0.49803900  0.49941178  0.83463745  1
  Ni  Ni42  1  0.49800800  0.83388231  0.50025045  1
  Ni  Ni43  1  0.33191534  0.66682068  0.66703505  1
  Ni  Ni44  1  0.49899103  0.83481467  0.83465147  1
  Ni  Ni45  1  0.83468638  0.16796268  0.50151896  1
  Ni  Ni46  1  0.66724053  0.00186777  0.66745006  1
  Ni  Ni47  1  0.83378592  0.16556520  0.83351293  1
  Ni  Ni48  1  0.83467099  0.49922851  0.49890648  1
  Ni  Ni49  1  0.66596077  0.33104465  0.66569328  1
  Cr  Cr50  1  0.83465020  0.49909122  0.83478217  1
  Ni  Ni51  1  0.83584030  0.83381466  0.50064849  1
  Cr  Cr52  1  0.66638341  0.66871013  0.66576711  1
  Ni  Ni53  1  0.83471039  0.83620033  0.83469639  1
" 