2751,Ni92Fe5Cr2_6,-238.547992482793, 178.648897393973,Ni92Fe5Cr2,"# generated using pymatgen
 data_Cr3Fe2Ni49
_symmetry_space_group_name_H-M   'P 1'
_cell_length_a   7.45622032
_cell_length_b   7.45622032
_cell_length_c   10.54468790
_cell_angle_alpha   90.00000000
_cell_angle_beta   90.00000000
_cell_angle_gamma   90.00000000
_symmetry_Int_Tables_number   1
_chemical_formula_structural   Cr3Fe2Ni49
_chemical_formula_sum   'Cr3 Fe2 Ni49'
_cell_volume   586.23425909
_cell_formula_units_Z   1
loop_
 _symmetry_equiv_pos_site_id
 _symmetry_equiv_pos_as_xyz
  1  'x, y, z'
loop_
 _atom_site_type_symbol
 _atom_site_label
 _atom_site_symmetry_multiplicity
 _atom_site_fract_x
 _atom_site_fract_y
 _atom_site_fract_z
 _atom_site_occupancy
  Ni  Ni0  1  1.00047053  1.00070481  1.00048646  1
  Ni  Ni1  1  0.16633632  0.16728305  0.16760058  1
  Ni  Ni2  1  0.00153022  0.99988974  0.33327551  1
  Ni  Ni3  1  0.00144063  0.33340175  0.00184575  1
  Ni  Ni4  1  0.16583190  0.50023204  0.16675861  1
  Ni  Ni5  1  0.00154450  0.33513485  0.33303718  1
  Ni  Ni6  1  0.00143528  0.66807378  0.00188493  1
  Ni  Ni7  1  0.16760323  0.83466049  0.16741502  1
  Ni  Ni8  1  1.00049696  0.66715162  0.33404745  1
  Ni  Ni9  1  0.33421610  1.00063098  0.00089341  1
  Fe  Fe10  1  0.50076931  0.16565107  0.16745277  1
  Ni  Ni11  1  0.33419664  0.00085935  0.33415741  1
  Ni  Ni12  1  0.33324090  0.33347856  0.99967390  1
  Cr  Cr13  1  0.50096409  0.50156570  0.16722058  1
  Ni  Ni14  1  0.33313666  0.33312272  0.33520558  1
  Ni  Ni15  1  0.33332057  0.66806696  0.99974737  1
  Ni  Ni16  1  0.50060732  0.83492646  0.16717234  1
  Ni  Ni17  1  0.33321720  0.66819269  0.33489346  1
  Ni  Ni18  1  0.66749245  1.00062580  1.00061704  1
  Ni  Ni19  1  0.83505039  0.16771043  0.16679772  1
  Ni  Ni20  1  0.66645036  0.99981120  0.33311012  1
  Ni  Ni21  1  0.66749417  0.33250819  1.00065495  1
  Ni  Ni22  1  0.83531076  0.50004928  0.16778860  1
  Ni  Ni23  1  0.66749511  0.33415320  0.33415919  1
  Ni  Ni24  1  0.66742310  0.66903894  1.00072520  1
  Ni  Ni25  1  0.83396713  0.83441659  0.16717199  1
  Ni  Ni26  1  0.66846315  0.66820846  0.33513220  1
  Ni  Ni27  1  0.16909171  0.16746653  0.50072696  1
  Ni  Ni28  1  0.00128762  0.99990503  0.66841898  1
  Ni  Ni29  1  0.16731701  0.16667242  0.83385143  1
  Ni  Ni30  1  0.16774341  0.50064089  0.50095484  1
  Ni  Ni31  1  0.00225629  0.33396824  0.66729457  1
  Fe  Fe32  1  0.16918309  0.50073796  0.83411918  1
  Ni  Ni33  1  0.16774312  0.83407070  0.50048371  1
  Ni  Ni34  1  0.00120212  0.66830814  0.66624110  1
  Ni  Ni35  1  0.16774459  0.83505407  0.83428029  1
  Ni  Ni36  1  0.49883986  0.16789317  0.50031267  1
  Ni  Ni37  1  0.33409173  0.00096673  0.66712822  1
  Ni  Ni38  1  0.50038363  0.16793518  0.83450836  1
  Ni  Ni39  1  0.50085233  0.50088377  0.50109857  1
  Ni  Ni40  1  0.33416547  0.33395347  0.66729543  1
  Ni  Ni41  1  0.49968730  0.50070156  0.83384906  1
  Ni  Ni42  1  0.50042433  0.83339988  0.50078404  1
  Ni  Ni43  1  0.33415759  0.66725866  0.66753356  1
  Ni  Ni44  1  0.50020046  0.83354024  0.83422181  1
  Cr  Cr45  1  0.83460699  0.16757491  0.50147672  1
  Ni  Ni46  1  0.66679961  0.99991563  0.66845426  1
  Ni  Ni47  1  0.83447978  0.16616574  0.83422497  1
  Ni  Ni48  1  0.83358417  0.50222629  0.50011013  1
  Ni  Ni49  1  0.66576216  0.33403217  0.66736750  1
  Cr  Cr50  1  0.83303114  0.50036628  0.83421980  1
  Ni  Ni51  1  0.83401009  0.83205194  0.50091178  1
  Ni  Ni52  1  0.66682021  0.66822906  0.66631964  1
  Ni  Ni53  1  0.83423631  0.83573971  0.83409424  1
" 