3391,Ni92Fe4Cr2_3,-239.362083271523, 180.733819188805,Ni92Fe4Cr2,"# generated using pymatgen
 data_CrFeNi25
_symmetry_space_group_name_H-M   'P 1'
_cell_length_a   7.45603307
_cell_length_b   7.45603307
_cell_length_c   10.54442308
_cell_angle_alpha   90.00000000
_cell_angle_beta   90.00000000
_cell_angle_gamma   90.00000000
_symmetry_Int_Tables_number   1
_chemical_formula_structural   CrFeNi25
_chemical_formula_sum   'Cr2 Fe2 Ni50'
_cell_volume   586.19009247
_cell_formula_units_Z   2
loop_
 _symmetry_equiv_pos_site_id
 _symmetry_equiv_pos_as_xyz
  1  'x, y, z'
loop_
 _atom_site_type_symbol
 _atom_site_label
 _atom_site_symmetry_multiplicity
 _atom_site_fract_x
 _atom_site_fract_y
 _atom_site_fract_z
 _atom_site_occupancy
  Ni  Ni0  1  0.00199972  0.00156493  0.00104971  1
  Ni  Ni1  1  0.16716840  0.16709546  0.16726779  1
  Ni  Ni2  1  0.00101645  0.00150615  0.33349849  1
  Ni  Ni3  1  0.00159472  0.33442302  1.00065548  1
  Ni  Ni4  1  0.16731859  0.50083248  0.16774136  1
  Ni  Ni5  1  1.00018252  0.33430467  0.33432858  1
  Ni  Ni6  1  1.00065218  0.66629550  0.00104376  1
  Ni  Ni7  1  0.16721346  0.83425607  0.16684135  1
  Ni  Ni8  1  0.00119439  0.66638748  0.33396424  1
  Ni  Ni9  1  0.33326196  0.00120652  1.00065750  1
  Ni  Ni10  1  0.49965047  0.16827099  0.16857382  1
  Ni  Ni11  1  0.33437304  1.00021230  0.33372741  1
  Ni  Ni12  1  0.33305235  0.33424010  0.00138298  1
  Ni  Ni13  1  0.50081457  0.50091348  0.16699148  1
  Fe  Fe14  1  0.33295235  0.33338162  0.33335550  1
  Ni  Ni15  1  0.33439602  0.66681809  1.00067349  1
  Ni  Ni16  1  0.49973423  0.83314900  0.16849270  1
  Ni  Ni17  1  0.33309542  0.66886895  0.33291446  1
  Cr  Cr18  1  0.66707602  1.00000928  0.00098374  1
  Ni  Ni19  1  0.83532407  0.16811976  0.16820804  1
  Ni  Ni20  1  0.66681198  0.00122519  0.33450061  1
  Fe  Fe21  1  0.66741582  0.33522183  0.00077064  1
  Ni  Ni22  1  0.83406498  0.50084031  0.16736572  1
  Ni  Ni23  1  0.66929846  0.33302093  0.33229969  1
  Ni  Ni24  1  0.66717345  0.66629265  0.00104268  1
  Ni  Ni25  1  0.83530779  0.83331628  0.16861367  1
  Ni  Ni26  1  0.66787975  0.66799618  0.33302487  1
  Ni  Ni27  1  0.16715459  0.16685729  0.50075209  1
  Ni  Ni28  1  0.00074510  0.00123078  0.66767098  1
  Ni  Ni29  1  0.16737607  0.16730695  0.83419938  1
  Ni  Ni30  1  0.16577212  0.50097102  0.50078173  1
  Ni  Ni31  1  0.00090048  0.33430362  0.66720307  1
  Ni  Ni32  1  0.16753356  0.50061675  0.83371507  1
  Ni  Ni33  1  0.16721739  0.83437255  0.50081507  1
  Ni  Ni34  1  0.00089638  0.66667559  0.66720760  1
  Ni  Ni35  1  0.16710146  0.83430260  0.83454545  1
  Ni  Ni36  1  0.50094939  0.16593495  0.50077440  1
  Ni  Ni37  1  0.33437559  0.00092109  0.66778922  1
  Ni  Ni38  1  0.49944955  0.16850958  0.83289487  1
  Cr  Cr39  1  0.50120154  0.50077264  0.50086941  1
  Ni  Ni40  1  0.33277724  0.33320198  0.66752633  1
  Ni  Ni41  1  0.50060566  0.50066455  0.83447005  1
  Ni  Ni42  1  0.50058683  0.83552432  0.50080738  1
  Ni  Ni43  1  0.33308360  0.66804896  0.66858599  1
  Ni  Ni44  1  0.49981753  0.83311853  0.83285976  1
  Ni  Ni45  1  0.83409021  0.16737577  0.50081503  1
  Ni  Ni46  1  0.66709458  0.00093834  0.66666895  1
  Ni  Ni47  1  0.83539943  0.16805895  0.83316293  1
  Ni  Ni48  1  0.83524425  0.50060046  0.50080718  1
  Ni  Ni49  1  0.66847446  0.33300548  0.66918424  1
  Ni  Ni50  1  0.83405883  0.50093480  0.83403954  1
  Ni  Ni51  1  0.83440219  0.83423211  0.50046922  1
  Ni  Ni52  1  0.66822997  0.66833682  0.66818197  1
  Ni  Ni53  1  0.83532502  0.83330050  0.83311950  1
" 