2256,Ni93Cr7_11,-202.125553374651, 191.56730393664,Ni93Cr7,"# generated using pymatgen
 data_Cr25Ni2
_symmetry_space_group_name_H-M   'P 1'
_cell_length_a   7.59482174
_cell_length_b   7.59482174
_cell_length_c   10.74069991
_cell_angle_alpha   90.00000000
_cell_angle_beta   90.00000000
_cell_angle_gamma   90.00000000
_symmetry_Int_Tables_number   1
_chemical_formula_structural   Cr25Ni2
_chemical_formula_sum   'Cr50 Ni4'
_cell_volume   619.53771847
_cell_formula_units_Z   2
loop_
 _symmetry_equiv_pos_site_id
 _symmetry_equiv_pos_as_xyz
  1  'x, y, z'
loop_
 _atom_site_type_symbol
 _atom_site_label
 _atom_site_symmetry_multiplicity
 _atom_site_fract_x
 _atom_site_fract_y
 _atom_site_fract_z
 _atom_site_occupancy
  Cr  Cr0  1  -0.00693908  -0.00714231  0.98997159  1
  Cr  Cr1  1  0.15872534  0.15825474  0.15814433  1
  Cr  Cr2  1  -0.00804341  -0.00810358  0.32538210  1
  Cr  Cr3  1  -0.00693908  0.32365180  0.98997159  1
  Cr  Cr4  1  0.15797817  0.49164327  0.15868472  1
  Cr  Cr5  1  -0.00804341  0.32461307  0.32538210  1
  Cr  Cr6  1  -0.00754111  0.65825474  0.99088006  1
  Cr  Cr7  1  0.15797817  0.82486622  0.15868472  1
  Cr  Cr8  1  -0.00775640  0.65825474  0.32606997  1
  Cr  Cr9  1  0.32492551  -0.00671820  -0.00815425  1
  Ni  Ni10  1  0.49104065  0.15825474  0.15832383  1
  Cr  Cr11  1  0.32586219  -0.00752472  0.32359213  1
  Cr  Cr12  1  0.32492551  0.32322769  -0.00815425  1
  Cr  Cr13  1  0.49147261  0.49053497  0.15773444  1
  Cr  Cr14  1  0.32586219  0.32403420  0.32359213  1
  Cr  Cr15  1  0.32492092  0.65825474  -0.00767125  1
  Cr  Cr16  1  0.49147261  0.82597451  0.15773444  1
  Cr  Cr17  1  0.32516132  0.65825474  0.32450665  1
  Cr  Cr18  1  0.65689903  -0.00720738  -0.00715557  1
  Cr  Cr19  1  0.82405396  0.15825474  0.15864545  1
  Cr  Cr20  1  0.65696577  -0.00734560  0.32396495  1
  Cr  Cr21  1  0.65689903  0.32371687  -0.00715557  1
  Cr  Cr22  1  0.82533654  0.49145297  0.15770182  1
  Cr  Cr23  1  0.65696577  0.32385508  0.32396495  1
  Cr  Cr24  1  0.65737888  0.65825474  0.99007391  1
  Cr  Cr25  1  0.82533654  0.82505651  0.15770182  1
  Cr  Cr26  1  0.65739814  0.65825474  0.32642297  1
  Cr  Cr27  1  0.15976646  0.15825474  0.49378101  1
  Cr  Cr28  1  -0.00692517  -0.00771793  0.65927544  1
  Ni  Ni29  1  0.16122129  0.15825474  0.82234946  1
  Cr  Cr30  1  0.15963027  0.48991937  0.49152986  1
  Cr  Cr31  1  -0.00692517  0.32422741  0.65927544  1
  Cr  Cr32  1  0.15963085  0.48928197  0.82467459  1
  Cr  Cr33  1  0.15963027  0.82659012  0.49152986  1
  Cr  Cr34  1  -0.00839531  0.65825474  0.65791063  1
  Cr  Cr35  1  0.15963085  0.82722751  0.82467459  1
  Cr  Cr36  1  0.48982330  0.15825474  0.49312581  1
  Ni  Ni37  1  0.32355292  -0.00476387  0.65959459  1
  Cr  Cr38  1  0.48967098  0.15825474  0.82331849  1
  Cr  Cr39  1  0.49017579  0.48996113  0.49328438  1
  Ni  Ni40  1  0.32355292  0.32127336  0.65959459  1
  Cr  Cr41  1  0.49062086  0.49044445  0.82373973  1
  Cr  Cr42  1  0.49017579  0.82654836  0.49328438  1
  Cr  Cr43  1  0.32459776  0.65825474  0.65796288  1
  Cr  Cr44  1  0.49062086  0.82606503  0.82373973  1
  Cr  Cr45  1  0.82498321  0.15825474  0.49085482  1
  Cr  Cr46  1  0.65739745  -0.00836254  0.65795299  1
  Cr  Cr47  1  0.82611864  0.15825474  0.82521393  1
  Cr  Cr48  1  0.82495489  0.49078693  0.49121864  1
  Cr  Cr49  1  0.65739745  0.32487202  0.65795299  1
  Cr  Cr50  1  0.82457379  0.49119152  0.82580406  1
  Cr  Cr51  1  0.82495489  0.82572255  0.49121864  1
  Cr  Cr52  1  0.65845014  0.65825474  0.65825073  1
  Cr  Cr53  1  0.82457379  0.82531796  0.82580406  1
" 