1411,Ni93Cr7_5,-202.160655255757, 193.204778541183,Ni93Cr7,"# generated using pymatgen
 data_Cr25Ni2
_symmetry_space_group_name_H-M   'P 1'
_cell_length_a   7.59597620
_cell_length_b   7.59597620
_cell_length_c   10.74233257
_cell_angle_alpha   90.00000000
_cell_angle_beta   90.00000000
_cell_angle_gamma   90.00000000
_symmetry_Int_Tables_number   1
_chemical_formula_structural   Cr25Ni2
_chemical_formula_sum   'Cr50 Ni4'
_cell_volume   619.82028370
_cell_formula_units_Z   2
loop_
 _symmetry_equiv_pos_site_id
 _symmetry_equiv_pos_as_xyz
  1  'x, y, z'
loop_
 _atom_site_type_symbol
 _atom_site_label
 _atom_site_symmetry_multiplicity
 _atom_site_fract_x
 _atom_site_fract_y
 _atom_site_fract_z
 _atom_site_occupancy
  Cr  Cr0  1  0.99112918  0.99151336  0.99143007  1
  Cr  Cr1  1  0.15818003  0.15817616  0.15752348  1
  Cr  Cr2  1  0.99072235  0.99151336  0.32426290  1
  Cr  Cr3  1  0.99150750  0.32398992  -0.00815105  1
  Cr  Cr4  1  0.15818003  0.49151336  0.15826532  1
  Cr  Cr5  1  -0.00708190  0.32539849  0.32583727  1
  Cr  Cr6  1  0.99150750  0.65903681  -0.00815105  1
  Cr  Cr7  1  0.15818003  0.82485056  0.15752348  1
  Cr  Cr8  1  -0.00708190  0.65762823  0.32583727  1
  Cr  Cr9  1  0.32523087  0.99151336  0.99143007  1
  Cr  Cr10  1  0.49202254  0.15806620  0.15949173  1
  Cr  Cr11  1  0.32563771  0.99151336  0.32426290  1
  Cr  Cr12  1  0.32485256  0.32398992  -0.00815105  1
  Cr  Cr13  1  0.49190212  0.49151336  0.15751310  1
  Cr  Cr14  1  0.32344196  0.32539849  0.32583727  1
  Cr  Cr15  1  0.32485256  0.65903681  -0.00815105  1
  Cr  Cr16  1  0.49202254  0.82496053  0.15949173  1
  Cr  Cr17  1  0.32344196  0.65762823  0.32583727  1
  Cr  Cr18  1  0.65818003  0.99151336  -0.00771090  1
  Cr  Cr19  1  0.82433752  0.15806620  0.15949173  1
  Ni  Ni20  1  0.65818003  -0.00848664  0.32465233  1
  Cr  Cr21  1  0.65818003  0.32355146  0.99036185  1
  Cr  Cr22  1  0.82445794  0.49151336  0.15751310  1
  Cr  Cr23  1  0.65818003  0.32320702  0.32532847  1
  Cr  Cr24  1  0.65818003  0.65947526  0.99036185  1
  Cr  Cr25  1  0.82433752  0.82496053  0.15949173  1
  Cr  Cr26  1  0.65818003  0.65981971  0.32532847  1
  Cr  Cr27  1  0.15818003  0.15710443  0.49333300  1
  Ni  Ni28  1  -0.00639226  0.99151336  0.65833417  1
  Cr  Cr29  1  0.15818003  0.15658984  0.82340436  1
  Ni  Ni30  1  0.15818003  0.49151336  0.49138310  1
  Cr  Cr31  1  -0.00807963  0.32472500  0.65701352  1
  Cr  Cr32  1  0.15818003  0.49151336  0.82537024  1
  Cr  Cr33  1  0.15818003  0.82592230  0.49333300  1
  Cr  Cr34  1  -0.00807963  0.65830172  0.65701352  1
  Cr  Cr35  1  0.15818003  0.82643689  0.82340436  1
  Cr  Cr36  1  0.49130309  0.15661616  0.49122539  1
  Ni  Ni37  1  0.32275232  0.99151336  0.65833417  1
  Cr  Cr38  1  0.48981940  0.15770931  0.82379352  1
  Cr  Cr39  1  0.49102431  0.49151336  0.49154007  1
  Cr  Cr40  1  0.32443969  0.32472500  0.65701352  1
  Cr  Cr41  1  0.49136529  0.49151336  0.82552261  1
  Cr  Cr42  1  0.49130309  0.82641057  0.49122539  1
  Cr  Cr43  1  0.32443969  0.65830172  0.65701352  1
  Cr  Cr44  1  0.48981940  0.82531742  0.82379352  1
  Cr  Cr45  1  0.82505697  0.15661616  0.49122539  1
  Cr  Cr46  1  0.65818003  0.99151336  0.65807836  1
  Cr  Cr47  1  0.82654066  0.15770931  0.82379352  1
  Cr  Cr48  1  0.82533575  0.49151336  0.49154007  1
  Cr  Cr49  1  0.65818003  0.32472805  0.65886672  1
  Cr  Cr50  1  0.82499476  0.49151336  0.82552261  1
  Cr  Cr51  1  0.82505697  0.82641057  0.49122539  1
  Cr  Cr52  1  0.65818003  0.65829867  0.65886672  1
  Cr  Cr53  1  0.82654066  0.82531742  0.82379352  1
" 