7622,Ni93Cr7_16,-202.103984377594, 190.971143558317,Ni93Cr7,"# generated using pymatgen
 data_Cr25Ni2
_symmetry_space_group_name_H-M   'P 1'
_cell_length_a   7.59753386
_cell_length_b   7.59753386
_cell_length_c   10.74453542
_cell_angle_alpha   90.00000000
_cell_angle_beta   90.00000000
_cell_angle_gamma   90.00000000
_symmetry_Int_Tables_number   1
_chemical_formula_structural   Cr25Ni2
_chemical_formula_sum   'Cr50 Ni4'
_cell_volume   620.20166873
_cell_formula_units_Z   2
loop_
 _symmetry_equiv_pos_site_id
 _symmetry_equiv_pos_as_xyz
  1  'x, y, z'
loop_
 _atom_site_type_symbol
 _atom_site_label
 _atom_site_symmetry_multiplicity
 _atom_site_fract_x
 _atom_site_fract_y
 _atom_site_fract_z
 _atom_site_occupancy
  Cr  Cr0  1  -0.00822774  0.99121811  0.99135266  1
  Cr  Cr1  1  0.15648885  0.15954528  0.15979261  1
  Cr  Cr2  1  0.99036467  -0.00715852  0.32556543  1
  Cr  Cr3  1  0.99130550  0.32488080  -0.00816352  1
  Cr  Cr4  1  0.15713992  0.48945017  0.15880289  1
  Ni  Ni5  1  0.98880306  0.32494562  0.32729440  1
  Cr  Cr6  1  -0.00824303  0.65816622  0.99099994  1
  Cr  Cr7  1  0.15766556  0.82529722  0.15826970  1
  Cr  Cr8  1  0.99061033  0.65636092  0.32535329  1
  Cr  Cr9  1  0.32514763  -0.00764349  0.99101792  1
  Cr  Cr10  1  0.49186387  0.15840523  0.15781515  1
  Cr  Cr11  1  0.32461035  -0.00858453  0.32434773  1
  Cr  Cr12  1  0.32588976  0.32376764  0.98993190  1
  Cr  Cr13  1  0.49187199  0.49117853  0.15821773  1
  Cr  Cr14  1  0.32396314  0.32471693  0.32409027  1
  Cr  Cr15  1  0.32410579  0.65796330  -0.00763442  1
  Cr  Cr16  1  0.49243022  0.82460823  0.15962025  1
  Cr  Cr17  1  0.32417959  0.65812483  0.32434403  1
  Cr  Cr18  1  0.65729699  -0.00713392  0.99099157  1
  Cr  Cr19  1  0.82584610  0.15904587  0.15919756  1
  Cr  Cr20  1  0.65903198  -0.00715949  0.32551727  1
  Cr  Cr21  1  0.65709484  0.32376709  0.98993779  1
  Cr  Cr22  1  0.82524224  0.48997892  0.15829417  1
  Cr  Cr23  1  0.66007414  0.32468322  0.32649567  1
  Cr  Cr24  1  0.65835949  0.65745932  -0.00766067  1
  Cr  Cr25  1  0.82414163  0.82528615  0.15634173  1
  Cr  Cr26  1  0.65941573  0.65682915  0.32544488  1
  Cr  Cr27  1  0.15634250  0.15912606  0.49005228  1
  Cr  Cr28  1  0.99040976  -0.00749236  0.65725478  1
  Cr  Cr29  1  0.15812339  0.15857400  0.82462568  1
  Cr  Cr30  1  0.15733698  0.48988906  0.49099890  1
  Cr  Cr31  1  0.98956490  0.32502097  0.65580346  1
  Cr  Cr32  1  0.15778034  0.49082350  0.82462110  1
  Cr  Cr33  1  0.15846848  0.82524080  0.49230526  1
  Cr  Cr34  1  0.99046983  0.65688558  0.65760343  1
  Cr  Cr35  1  0.15751703  0.82484922  0.82358039  1
  Cr  Cr36  1  0.49210492  0.15808326  0.49177214  1
  Cr  Cr37  1  0.32517796  -0.00734844  0.65896563  1
  Ni  Ni38  1  0.49178449  0.15768781  0.82485948  1
  Cr  Cr39  1  0.49241713  0.49150305  0.49133596  1
  Cr  Cr40  1  0.32595187  0.32367936  0.66034882  1
  Cr  Cr41  1  0.49173220  0.49073585  0.82462959  1
  Cr  Cr42  1  0.49164463  0.82460085  0.49103740  1
  Cr  Cr43  1  0.32406314  0.65770877  0.65756221  1
  Cr  Cr44  1  0.49244468  0.82508165  0.82362035  1
  Ni  Ni45  1  0.82572876  0.16190698  0.49002753  1
  Cr  Cr46  1  0.65844570  -0.00588149  0.65789132  1
  Cr  Cr47  1  0.82421885  0.15803673  0.82507120  1
  Ni  Ni48  1  0.82623760  0.48784596  0.48999885  1
  Cr  Cr49  1  0.65888320  0.32395330  0.65747797  1
  Cr  Cr50  1  0.82470429  0.49138453  0.82512611  1
  Cr  Cr51  1  0.82418011  0.82548530  0.49225702  1
  Cr  Cr52  1  0.65980232  0.65608225  0.65626436  1
  Cr  Cr53  1  0.82427233  0.82481857  0.82561083  1
" 