3451,Ni93Cr7_6,-201.975643537428, 189.524687461621,Ni93Cr7,"# generated using pymatgen
 data_Cr25Ni2
_symmetry_space_group_name_H-M   'P 1'
_cell_length_a   7.60065593
_cell_length_b   7.60065593
_cell_length_c   10.74895070
_cell_angle_alpha   90.00000000
_cell_angle_beta   90.00000000
_cell_angle_gamma   90.00000000
_symmetry_Int_Tables_number   1
_chemical_formula_structural   Cr25Ni2
_chemical_formula_sum   'Cr50 Ni4'
_cell_volume   620.96656638
_cell_formula_units_Z   2
loop_
 _symmetry_equiv_pos_site_id
 _symmetry_equiv_pos_as_xyz
  1  'x, y, z'
loop_
 _atom_site_type_symbol
 _atom_site_label
 _atom_site_symmetry_multiplicity
 _atom_site_fract_x
 _atom_site_fract_y
 _atom_site_fract_z
 _atom_site_occupancy
  Cr  Cr0  1  -0.00846044  0.99088191  0.99121074  1
  Cr  Cr1  1  0.15787740  0.15932683  0.15931915  1
  Cr  Cr2  1  -0.00862881  -0.00794862  0.32442791  1
  Cr  Cr3  1  0.99044778  0.32454407  0.99049664  1
  Cr  Cr4  1  0.15787740  0.48976131  0.15931915  1
  Ni  Ni5  1  -0.00679130  0.32454407  0.32435886  1
  Cr  Cr6  1  -0.00846044  0.65820623  0.99121074  1
  Cr  Cr7  1  0.15787740  0.82454407  0.15721380  1
  Cr  Cr8  1  -0.00862881  0.65703677  0.32442791  1
  Cr  Cr9  1  0.32421524  0.99088191  0.99121074  1
  Cr  Cr10  1  0.49047821  0.15827237  0.15826933  1
  Cr  Cr11  1  0.32438362  -0.00794862  0.32442791  1
  Cr  Cr12  1  0.32530703  0.32454407  0.99049664  1
  Cr  Cr13  1  0.49047821  0.49081577  0.15826933  1
  Ni  Ni14  1  0.32254611  0.32454407  0.32435886  1
  Cr  Cr15  1  0.32421524  0.65820623  0.99121074  1
  Cr  Cr16  1  0.49154172  0.82454407  0.15754696  1
  Cr  Cr17  1  0.32438362  0.65703677  0.32442791  1
  Cr  Cr18  1  0.65787740  -0.00802631  -0.00807516  1
  Cr  Cr19  1  0.82527660  0.15827237  0.15826933  1
  Cr  Cr20  1  0.65787740  -0.00836402  0.32426143  1
  Cr  Cr21  1  0.65787740  0.32454407  0.99121074  1
  Cr  Cr22  1  0.82527660  0.49081577  0.15826933  1
  Cr  Cr23  1  0.65787740  0.32454407  0.32387883  1
  Cr  Cr24  1  0.65787740  0.65711445  -0.00807516  1
  Cr  Cr25  1  0.82421309  0.82454407  0.15754696  1
  Cr  Cr26  1  0.65787740  0.65745216  0.32426143  1
  Cr  Cr27  1  0.15787740  0.15965720  0.48943200  1
  Cr  Cr28  1  0.99037010  0.99105029  0.65799357  1
  Cr  Cr29  1  0.15787740  0.15820839  0.82487452  1
  Cr  Cr30  1  0.15787740  0.48943094  0.48943200  1
  Cr  Cr31  1  0.99078549  0.32454407  0.65816005  1
  Cr  Cr32  1  0.15787740  0.49087976  0.82487452  1
  Cr  Cr33  1  0.15787740  0.82454407  0.49121074  1
  Cr  Cr34  1  0.99037010  0.65803786  0.65799357  1
  Cr  Cr35  1  0.15787740  0.82454407  0.82520768  1
  Cr  Cr36  1  0.49087924  0.15754591  0.49121074  1
  Cr  Cr37  1  0.32538471  0.99105029  0.65799357  1
  Cr  Cr38  1  0.49160570  0.15714488  0.82415214  1
  Cr  Cr39  1  0.49087924  0.49154224  0.49121074  1
  Cr  Cr40  1  0.32496932  0.32454407  0.65816005  1
  Cr  Cr41  1  0.49160570  0.49194326  0.82415214  1
  Cr  Cr42  1  0.49299053  0.82454407  0.49298948  1
  Cr  Cr43  1  0.32538471  0.65803786  0.65799357  1
  Cr  Cr44  1  0.49266016  0.82454407  0.82310232  1
  Cr  Cr45  1  0.82487557  0.15754591  0.49121074  1
  Ni  Ni46  1  0.65787740  0.98921278  0.65806261  1
  Cr  Cr47  1  0.82414911  0.15714488  0.82415214  1
  Cr  Cr48  1  0.82487557  0.49154224  0.49121074  1
  Cr  Cr49  1  0.65787740  0.32454407  0.65854265  1
  Cr  Cr50  1  0.82414911  0.49194326  0.82415214  1
  Cr  Cr51  1  0.82276428  0.82454407  0.49298948  1
  Ni  Ni52  1  0.65787740  0.65987536  0.65806261  1
  Cr  Cr53  1  0.82309464  0.82454407  0.82310232  1
" 