316,Ni93Cr7_8,-202.147073247913, 191.325706448255,Ni93Cr7,"# generated using pymatgen
 data_Cr25Ni2
_symmetry_space_group_name_H-M   'P 1'
_cell_length_a   7.59665229
_cell_length_b   7.59665229
_cell_length_c   10.74328869
_cell_angle_alpha   90.00000000
_cell_angle_beta   90.00000000
_cell_angle_gamma   90.00000000
_symmetry_Int_Tables_number   1
_chemical_formula_structural   Cr25Ni2
_chemical_formula_sum   'Cr50 Ni4'
_cell_volume   619.98580040
_cell_formula_units_Z   2
loop_
 _symmetry_equiv_pos_site_id
 _symmetry_equiv_pos_as_xyz
  1  'x, y, z'
loop_
 _atom_site_type_symbol
 _atom_site_label
 _atom_site_symmetry_multiplicity
 _atom_site_fract_x
 _atom_site_fract_y
 _atom_site_fract_z
 _atom_site_occupancy
  Cr  Cr0  1  -0.00796821  0.98985754  -0.00832014  1
  Cr  Cr1  1  0.15800977  0.15868359  0.15891350  1
  Cr  Cr2  1  -0.00846143  0.99094140  0.32442370  1
  Cr  Cr3  1  0.99022816  0.32497099  -0.00783307  1
  Cr  Cr4  1  0.15867619  0.49075161  0.15771466  1
  Cr  Cr5  1  0.99044551  0.32479050  0.32522820  1
  Cr  Cr6  1  -0.00788246  0.65969257  0.98966781  1
  Cr  Cr7  1  0.15867902  0.82499152  0.15732886  1
  Cr  Cr8  1  0.99049262  0.65865718  0.32522170  1
  Cr  Cr9  1  0.32525972  0.99092648  0.99043718  1
  Cr  Cr10  1  0.49084257  0.15759349  0.15731677  1
  Cr  Cr11  1  0.32476395  0.99140233  0.32444493  1
  Cr  Cr12  1  0.32689296  0.32378554  0.99092470  1
  Cr  Cr13  1  0.49153410  0.49314661  0.15906450  1
  Cr  Cr14  1  0.32582981  0.32433205  0.32522228  1
  Cr  Cr15  1  0.32404992  0.65980013  0.99007407  1
  Cr  Cr16  1  0.49259951  0.82367954  0.15982651  1
  Cr  Cr17  1  0.32531382  0.65866066  0.32522207  1
  Cr  Cr18  1  0.65710152  -0.00733267  0.99048041  1
  Cr  Cr19  1  0.82551705  0.15759392  0.15773552  1
  Cr  Cr20  1  0.65813324  -0.00844589  0.32488263  1
  Cr  Cr21  1  0.65717660  0.32374052  0.99044250  1
  Cr  Cr22  1  0.82423909  0.49247884  0.15822918  1
  Cr  Cr23  1  0.65813450  0.32546130  0.32443086  1
  Cr  Cr24  1  0.65828121  0.65790579  -0.00742935  1
  Cr  Cr25  1  0.82318631  0.82433283  0.15898981  1
  Ni  Ni26  1  0.65847725  0.65806043  0.32472198  1
  Cr  Cr27  1  0.15806517  0.15837488  0.49034966  1
  Cr  Cr28  1  0.99136026  0.98999064  0.65821667  1
  Cr  Cr29  1  0.15867198  0.15788421  0.82509707  1
  Cr  Cr30  1  0.15867362  0.49076495  0.49191785  1
  Cr  Cr31  1  0.99069387  0.32543251  0.65703409  1
  Cr  Cr32  1  0.15821586  0.49149324  0.82477495  1
  Cr  Cr33  1  0.15872926  0.82530677  0.49195492  1
  Cr  Cr34  1  -0.00752164  0.65917223  0.65945189  1
  Ni  Ni35  1  0.15843711  0.82560627  0.82487168  1
  Cr  Cr36  1  0.49184808  0.15654410  0.49319066  1
  Cr  Cr37  1  0.32582536  0.99105268  0.65936876  1
  Ni  Ni38  1  0.49223616  0.15635445  0.82348401  1
  Cr  Cr39  1  0.49179703  0.49307472  0.49029288  1
  Cr  Cr40  1  0.32640021  0.32429439  0.65825590  1
  Cr  Cr41  1  0.49132694  0.49091989  0.82510463  1
  Cr  Cr42  1  0.49336088  0.82473516  0.49075466  1
  Cr  Cr43  1  0.32370091  0.65927105  0.65907032  1
  Cr  Cr44  1  0.49204128  0.82615451  0.82398542  1
  Cr  Cr45  1  0.82445374  0.15656704  0.49286960  1
  Ni  Ni46  1  0.65676383  -0.00752304  0.65943312  1
  Cr  Cr47  1  0.82378671  0.15705567  0.82387758  1
  Cr  Cr48  1  0.82398368  0.49240990  0.49108900  1
  Cr  Cr49  1  0.65714615  0.32303516  0.65947360  1
  Cr  Cr50  1  0.82489095  0.49140476  0.82512617  1
  Cr  Cr51  1  0.82240191  0.82533074  0.49152650  1
  Cr  Cr52  1  0.65824443  0.65843598  0.65743625  1
  Cr  Cr53  1  0.82427341  0.82575776  0.82398979  1
" 