4185,Ni93Cr7_18,-202.107309758855, 191.4853829149,Ni93Cr7,"# generated using pymatgen
 data_Cr25Ni2
_symmetry_space_group_name_H-M   'P 1'
_cell_length_a   7.59670395
_cell_length_b   7.59670395
_cell_length_c   10.74336176
_cell_angle_alpha   90.00000000
_cell_angle_beta   90.00000000
_cell_angle_gamma   90.00000000
_symmetry_Int_Tables_number   1
_chemical_formula_structural   Cr25Ni2
_chemical_formula_sum   'Cr50 Ni4'
_cell_volume   619.99844985
_cell_formula_units_Z   2
loop_
 _symmetry_equiv_pos_site_id
 _symmetry_equiv_pos_as_xyz
  1  'x, y, z'
loop_
 _atom_site_type_symbol
 _atom_site_label
 _atom_site_symmetry_multiplicity
 _atom_site_fract_x
 _atom_site_fract_y
 _atom_site_fract_z
 _atom_site_occupancy
  Cr  Cr0  1  -0.00665002  -0.00850972  -0.00672968  1
  Ni  Ni1  1  0.15810398  0.15579441  0.15809112  1
  Cr  Cr2  1  -0.00804615  0.99119232  0.32344063  1
  Cr  Cr3  1  -0.00777401  0.32367528  -0.00802786  1
  Cr  Cr4  1  0.15758037  0.49238756  0.15892689  1
  Cr  Cr5  1  -0.00723334  0.32342643  0.32407813  1
  Cr  Cr6  1  -0.00763558  0.65933432  -0.00788350  1
  Ni  Ni7  1  0.15791042  0.82740534  0.15801544  1
  Cr  Cr8  1  0.99078534  0.65981320  0.32475318  1
  Cr  Cr9  1  0.32291902  -0.00814402  -0.00673548  1
  Cr  Cr10  1  0.49251400  0.15850848  0.15770135  1
  Cr  Cr11  1  0.32318915  -0.00768910  0.32206430  1
  Cr  Cr12  1  0.32455918  0.32373401  -0.00808370  1
  Cr  Cr13  1  0.49285816  0.49097997  0.15763874  1
  Cr  Cr14  1  0.32372256  0.32353764  0.32456493  1
  Cr  Cr15  1  0.32385698  0.65891050  -0.00784002  1
  Cr  Cr16  1  0.49048083  0.82482788  0.15811030  1
  Cr  Cr17  1  0.32440032  0.65864219  0.32336637  1
  Cr  Cr18  1  0.65812318  -0.00804485  0.99077566  1
  Cr  Cr19  1  0.82450681  0.15917984  0.15684244  1
  Cr  Cr20  1  0.65930736  0.99017984  0.32697250  1
  Ni  Ni21  1  0.65777481  0.32466685  0.99139493  1
  Cr  Cr22  1  0.82391665  0.49031805  0.15677325  1
  Cr  Cr23  1  0.65796179  0.32499091  0.32468684  1
  Cr  Cr24  1  0.65813233  0.65734717  0.99111534  1
  Cr  Cr25  1  0.82548648  0.82482208  0.15857070  1
  Cr  Cr26  1  0.65919466  0.65914558  0.32651098  1
  Cr  Cr27  1  0.15807498  0.15772212  0.49175023  1
  Cr  Cr28  1  0.98991168  0.99094952  0.65761478  1
  Cr  Cr29  1  0.15757451  0.15754424  0.82375947  1
  Cr  Cr30  1  0.15807011  0.49198193  0.49229341  1
  Cr  Cr31  1  0.99127321  0.32479564  0.65811792  1
  Cr  Cr32  1  0.15757501  0.49216948  0.82314441  1
  Cr  Cr33  1  0.15753821  0.82470105  0.49172299  1
  Cr  Cr34  1  0.98949938  0.65861556  0.65766410  1
  Cr  Cr35  1  0.15824298  0.82471927  0.82493387  1
  Cr  Cr36  1  0.49111788  0.15758281  0.49140762  1
  Cr  Cr37  1  0.32535186  -0.00785301  0.65892749  1
  Cr  Cr38  1  0.49261276  0.15814102  0.82538097  1
  Cr  Cr39  1  0.49046192  0.49152007  0.49058335  1
  Cr  Cr40  1  0.32512967  0.32478644  0.65772136  1
  Cr  Cr41  1  0.49200216  0.49090354  0.82624039  1
  Cr  Cr42  1  0.49112405  0.82531230  0.49142502  1
  Cr  Cr43  1  0.32581960  0.65746566  0.65892790  1
  Cr  Cr44  1  0.49080712  0.82532516  0.82486807  1
  Cr  Cr45  1  0.82520575  0.15696569  0.49140794  1
  Cr  Cr46  1  0.65917883  0.99027723  0.65676617  1
  Cr  Cr47  1  0.82418143  0.15881661  0.82623801  1
  Cr  Cr48  1  0.82587463  0.49188693  0.49058911  1
  Cr  Cr49  1  0.65799051  0.32525574  0.65855581  1
  Cr  Cr50  1  0.82478019  0.49021785  0.82709706  1
  Ni  Ni51  1  0.82537464  0.82479304  0.49170343  1
  Cr  Cr52  1  0.65911684  0.65882520  0.65682015  1
  Cr  Cr53  1  0.82534376  0.82532566  0.82442407  1
" 