547,Ni93Cr7_4,-202.09160283329, 191.000077288845,Ni93Cr7,"# generated using pymatgen
 data_Cr25Ni2
_symmetry_space_group_name_H-M   'P 1'
_cell_length_a   7.59412536
_cell_length_b   7.59412536
_cell_length_c   10.73971508
_cell_angle_alpha   90.00000000
_cell_angle_beta   90.00000000
_cell_angle_gamma   90.00000000
_symmetry_Int_Tables_number   1
_chemical_formula_structural   Cr25Ni2
_chemical_formula_sum   'Cr50 Ni4'
_cell_volume   619.36731568
_cell_formula_units_Z   2
loop_
 _symmetry_equiv_pos_site_id
 _symmetry_equiv_pos_as_xyz
  1  'x, y, z'
loop_
 _atom_site_type_symbol
 _atom_site_label
 _atom_site_symmetry_multiplicity
 _atom_site_fract_x
 _atom_site_fract_y
 _atom_site_fract_z
 _atom_site_occupancy
  Cr  Cr0  1  -0.00831106  -0.00831106  -0.00836685  1
  Cr  Cr1  1  0.15973416  0.15973416  0.15744429  1
  Cr  Cr2  1  -0.00810631  -0.00810631  0.32470877  1
  Cr  Cr3  1  -0.00717777  0.32419411  -0.00836685  1
  Cr  Cr4  1  0.15958696  0.49077498  0.15744143  1
  Cr  Cr5  1  0.99125351  0.32419206  0.32535515  1
  Cr  Cr6  1  -0.00830756  0.65901846  -0.00836685  1
  Cr  Cr7  1  0.15849635  0.82438558  0.15868685  1
  Cr  Cr8  1  -0.00810354  0.65881392  0.32470942  1
  Cr  Cr9  1  0.32419411  -0.00717777  -0.00836685  1
  Cr  Cr10  1  0.49077498  0.15958696  0.15744143  1
  Cr  Cr11  1  0.32419206  0.99125351  0.32535515  1
  Ni  Ni12  1  0.32691971  0.32691971  -0.00836685  1
  Ni  Ni13  1  0.49065692  0.49065692  0.15732855  1
  Cr  Cr14  1  0.32668891  0.32668891  0.32491119  1
  Cr  Cr15  1  0.32668695  0.65539735  -0.00836685  1
  Cr  Cr16  1  0.49201190  0.82453594  0.15868615  1
  Cr  Cr17  1  0.32668790  0.65695530  0.32535456  1
  Cr  Cr18  1  0.65901846  -0.00830756  -0.00836685  1
  Cr  Cr19  1  0.82438558  0.15849635  0.15868685  1
  Cr  Cr20  1  0.65881392  -0.00810354  0.32470942  1
  Cr  Cr21  1  0.65539735  0.32668695  -0.00836685  1
  Cr  Cr22  1  0.82453594  0.49201190  0.15868615  1
  Cr  Cr23  1  0.65695530  0.32668790  0.32535456  1
  Cr  Cr24  1  0.65652576  0.65652576  -0.00836685  1
  Cr  Cr25  1  0.82438990  0.82438990  0.15829720  1
  Cr  Cr26  1  0.65631719  0.65631719  0.32471062  1
  Cr  Cr27  1  0.15887737  0.15887737  0.49163315  1
  Cr  Cr28  1  -0.00810631  -0.00810631  0.65855754  1
  Cr  Cr29  1  0.15973416  0.15973416  0.82582202  1
  Cr  Cr30  1  0.15872955  0.49163209  0.49163315  1
  Cr  Cr31  1  0.99125351  0.32419206  0.65791116  1
  Cr  Cr32  1  0.15958696  0.49077498  0.82582488  1
  Cr  Cr33  1  0.15886108  0.82438966  0.49163315  1
  Cr  Cr34  1  -0.00810354  0.65881392  0.65855688  1
  Cr  Cr35  1  0.15849635  0.82438558  0.82457946  1
  Cr  Cr36  1  0.49163209  0.15872955  0.49163315  1
  Cr  Cr37  1  0.32419206  0.99125351  0.65791116  1
  Cr  Cr38  1  0.49077498  0.15958696  0.82582488  1
  Ni  Ni39  1  0.49163345  0.49163345  0.49163315  1
  Cr  Cr40  1  0.32668891  0.32668891  0.65835512  1
  Ni  Ni41  1  0.49065692  0.49065692  0.82593776  1
  Cr  Cr42  1  0.49164861  0.82453943  0.49163315  1
  Cr  Cr43  1  0.32668790  0.65695530  0.65791175  1
  Cr  Cr44  1  0.49201190  0.82453594  0.82458016  1
  Cr  Cr45  1  0.82438966  0.15886108  0.49163315  1
  Cr  Cr46  1  0.65881392  -0.00810354  0.65855688  1
  Cr  Cr47  1  0.82438558  0.15849635  0.82457946  1
  Cr  Cr48  1  0.82453943  0.49164861  0.49163315  1
  Cr  Cr49  1  0.65695530  0.32668790  0.65791175  1
  Cr  Cr50  1  0.82453594  0.49201190  0.82458016  1
  Cr  Cr51  1  0.82438992  0.82438992  0.49163315  1
  Cr  Cr52  1  0.65631719  0.65631719  0.65855569  1
  Cr  Cr53  1  0.82438990  0.82438990  0.82496911  1
" 