3132,Ni93Cr7_13,-202.154441267598, 192.049849673322,Ni93Cr7,"# generated using pymatgen
 data_Cr25Ni2
_symmetry_space_group_name_H-M   'P 1'
_cell_length_a   7.59567922
_cell_length_b   7.59567922
_cell_length_c   10.74191257
_cell_angle_alpha   90.00000000
_cell_angle_beta   90.00000000
_cell_angle_gamma   90.00000000
_symmetry_Int_Tables_number   1
_chemical_formula_structural   Cr25Ni2
_chemical_formula_sum   'Cr50 Ni4'
_cell_volume   619.74758704
_cell_formula_units_Z   2
loop_
 _symmetry_equiv_pos_site_id
 _symmetry_equiv_pos_as_xyz
  1  'x, y, z'
loop_
 _atom_site_type_symbol
 _atom_site_label
 _atom_site_symmetry_multiplicity
 _atom_site_fract_x
 _atom_site_fract_y
 _atom_site_fract_z
 _atom_site_occupancy
  Cr  Cr0  1  -0.00752248  -0.00763666  -0.00749289  1
  Ni  Ni1  1  0.16016239  0.15714628  0.15956658  1
  Cr  Cr2  1  -0.00684252  -0.00786132  0.32387298  1
  Cr  Cr3  1  -0.00687769  0.32341216  -0.00716812  1
  Cr  Cr4  1  0.15899265  0.49043765  0.15749247  1
  Cr  Cr5  1  -0.00736710  0.32413603  0.32425981  1
  Cr  Cr6  1  -0.00810490  0.65889216  0.99121750  1
  Cr  Cr7  1  0.15973089  0.82684033  0.15865477  1
  Cr  Cr8  1  0.99143757  0.65844720  0.32554689  1
  Cr  Cr9  1  0.32473879  -0.00658284  0.99129625  1
  Cr  Cr10  1  0.49020753  0.15761355  0.15891451  1
  Ni  Ni11  1  0.32353623  -0.00709131  0.32364899  1
  Cr  Cr12  1  0.32573130  0.32410666  -0.00790644  1
  Ni  Ni13  1  0.49107948  0.49099719  0.15823159  1
  Cr  Cr14  1  0.32479948  0.32431357  0.32317422  1
  Cr  Cr15  1  0.32584907  0.65704604  -0.00791733  1
  Cr  Cr16  1  0.49056866  0.82513340  0.15939724  1
  Cr  Cr17  1  0.32547097  0.65773851  0.32430276  1
  Cr  Cr18  1  0.65746586  -0.00762788  0.98956446  1
  Cr  Cr19  1  0.82566854  0.15836492  0.15825334  1
  Cr  Cr20  1  0.65780249  0.99142748  0.32550430  1
  Cr  Cr21  1  0.65571088  0.32456139  -0.00833315  1
  Cr  Cr22  1  0.82383203  0.49095216  0.15781188  1
  Cr  Cr23  1  0.65705636  0.32588158  0.32430046  1
  Cr  Cr24  1  0.65678598  0.65765167  -0.00672457  1
  Cr  Cr25  1  0.82441402  0.82526173  0.15745112  1
  Cr  Cr26  1  0.65755594  0.65724552  0.32388445  1
  Cr  Cr27  1  0.15962911  0.15766931  0.48978017  1
  Cr  Cr28  1  0.99141025  0.99142145  0.65822334  1
  Cr  Cr29  1  0.15915399  0.15869439  0.82535774  1
  Cr  Cr30  1  0.15844111  0.49109583  0.49303755  1
  Cr  Cr31  1  -0.00794377  0.32402677  0.65745820  1
  Cr  Cr32  1  0.15771921  0.49160719  0.82411204  1
  Cr  Cr33  1  0.16022627  0.82584583  0.49089367  1
  Cr  Cr34  1  -0.00839939  0.65915482  0.65780901  1
  Cr  Cr35  1  0.15877603  0.82431312  0.82492104  1
  Cr  Cr36  1  0.49059697  0.15712512  0.49135046  1
  Cr  Cr37  1  0.32547318  -0.00740918  0.65905593  1
  Ni  Ni38  1  0.49132194  0.15844848  0.82465033  1
  Cr  Cr39  1  0.49116146  0.49108957  0.49105299  1
  Cr  Cr40  1  0.32588630  0.32397097  0.65948535  1
  Cr  Cr41  1  0.49145988  0.49058355  0.82534549  1
  Cr  Cr42  1  0.49002170  0.82634087  0.49019035  1
  Cr  Cr43  1  0.32520131  0.65805139  0.65824430  1
  Cr  Cr44  1  0.49100394  0.82608488  0.82491907  1
  Cr  Cr45  1  0.82438799  0.15883683  0.49145916  1
  Cr  Cr46  1  0.65769169  -0.00781844  0.65959132  1
  Cr  Cr47  1  0.82362490  0.15915315  0.82488734  1
  Cr  Cr48  1  0.82496218  0.49051413  0.49185186  1
  Cr  Cr49  1  0.65663444  0.32375600  0.65872535  1
  Cr  Cr50  1  0.82541903  0.49096432  0.82493577  1
  Cr  Cr51  1  0.82438799  0.82523994  0.49146525  1
  Cr  Cr52  1  0.65780080  0.65871930  0.65745100  1
  Cr  Cr53  1  0.82482840  0.82447254  0.82570117  1
" 