5325,Ni93Cr7_1,-202.136352366552, 192.118652777735,Ni93Cr7,"# generated using pymatgen
 data_Cr25Ni2
_symmetry_space_group_name_H-M   'P 1'
_cell_length_a   7.59518753
_cell_length_b   7.59518753
_cell_length_c   10.74121721
_cell_angle_alpha   90.00000000
_cell_angle_beta   90.00000000
_cell_angle_gamma   90.00000000
_symmetry_Int_Tables_number   1
_chemical_formula_structural   Cr25Ni2
_chemical_formula_sum   'Cr50 Ni4'
_cell_volume   619.62723879
_cell_formula_units_Z   2
loop_
 _symmetry_equiv_pos_site_id
 _symmetry_equiv_pos_as_xyz
  1  'x, y, z'
loop_
 _atom_site_type_symbol
 _atom_site_label
 _atom_site_symmetry_multiplicity
 _atom_site_fract_x
 _atom_site_fract_y
 _atom_site_fract_z
 _atom_site_occupancy
  Cr  Cr0  1  -0.00749342  0.99096557  -0.00771725  1
  Cr  Cr1  1  0.15752892  0.15872502  0.15871195  1
  Cr  Cr2  1  -0.00732129  -0.00788615  0.32546716  1
  Cr  Cr3  1  -0.00792524  0.32550695  -0.00771769  1
  Cr  Cr4  1  0.15976388  0.49214031  0.15803527  1
  Cr  Cr5  1  -0.00828473  0.32526326  0.32654620  1
  Cr  Cr6  1  0.99104232  0.65822098  0.99120257  1
  Cr  Cr7  1  0.15922269  0.82381170  0.15882136  1
  Cr  Cr8  1  0.99105130  0.65741681  0.32526952  1
  Cr  Cr9  1  0.32573529  -0.00745395  0.99043158  1
  Cr  Cr10  1  0.49229385  0.15872837  0.15789472  1
  Cr  Cr11  1  0.32401771  -0.00801754  0.32573302  1
  Cr  Cr12  1  0.32579425  0.32344950  0.99038146  1
  Cr  Cr13  1  0.49000001  0.49220283  0.15959689  1
  Cr  Cr14  1  0.32396361  0.32425301  0.32537950  1
  Cr  Cr15  1  0.32519688  0.65865879  -0.00807309  1
  Cr  Cr16  1  0.49051553  0.82372538  0.16035727  1
  Ni  Ni17  1  0.32444887  0.65810061  0.32477494  1
  Cr  Cr18  1  0.65640927  -0.00840167  0.99111223  1
  Cr  Cr19  1  0.82487966  0.15813724  0.15790500  1
  Cr  Cr20  1  0.65805637  0.99139508  0.32424071  1
  Cr  Cr21  1  0.65678739  0.32483126  0.99106614  1
  Cr  Cr22  1  0.82488602  0.49046636  0.15800400  1
  Cr  Cr23  1  0.65914638  0.32595213  0.32541466  1
  Cr  Cr24  1  0.65845090  0.65822677  0.99155592  1
  Cr  Cr25  1  0.82488939  0.82611314  0.15755268  1
  Cr  Cr26  1  0.65899431  0.65740808  0.32567670  1
  Ni  Ni27  1  0.15825072  0.15856230  0.49152028  1
  Cr  Cr28  1  -0.00678981  -0.00805670  0.65692149  1
  Cr  Cr29  1  0.15761545  0.15871412  0.82443980  1
  Cr  Cr30  1  0.15923400  0.49149208  0.49125138  1
  Cr  Cr31  1  -0.00800862  0.32559899  0.65566125  1
  Cr  Cr32  1  0.15840995  0.49163025  0.82558657  1
  Cr  Cr33  1  0.15946553  0.82492501  0.49119509  1
  Cr  Cr34  1  0.99041152  0.65723318  0.65807350  1
  Cr  Cr35  1  0.15782687  0.82437466  0.82483256  1
  Cr  Cr36  1  0.49136212  0.15827897  0.49193938  1
  Cr  Cr37  1  0.32487263  -0.00659482  0.65853687  1
  Ni  Ni38  1  0.49166768  0.15824155  0.82510259  1
  Cr  Cr39  1  0.49119931  0.49246505  0.49041985  1
  Cr  Cr40  1  0.32492793  0.32284566  0.65900235  1
  Cr  Cr41  1  0.49097638  0.49050686  0.82483136  1
  Cr  Cr42  1  0.49065419  0.82387962  0.49035686  1
  Cr  Cr43  1  0.32488940  0.65839885  0.65846696  1
  Cr  Cr44  1  0.49155741  0.82525013  0.82410820  1
  Cr  Cr45  1  0.82558116  0.15881804  0.49119003  1
  Cr  Cr46  1  0.65658260  -0.00804548  0.65940020  1
  Cr  Cr47  1  0.82410650  0.15812062  0.82559902  1
  Ni  Ni48  1  0.82521368  0.49136212  0.49152228  1
  Cr  Cr49  1  0.65783500  0.32555197  0.65808700  1
  Cr  Cr50  1  0.82534234  0.49062419  0.82445015  1
  Cr  Cr51  1  0.82444944  0.82524079  0.49228491  1
  Cr  Cr52  1  0.65945426  0.65717582  0.65724390  1
  Cr  Cr53  1  0.82533987  0.82594402  0.82483039  1
" 