2075,Ni93Cr7_17,-202.032413188969, 190.340785654344,Ni93Cr7,"# generated using pymatgen
 data_Cr25Ni2
_symmetry_space_group_name_H-M   'P 1'
_cell_length_a   7.59782050
_cell_length_b   7.59782050
_cell_length_c   10.74494080
_cell_angle_alpha   90.00000000
_cell_angle_beta   90.00000000
_cell_angle_gamma   90.00000000
_symmetry_Int_Tables_number   1
_chemical_formula_structural   Cr25Ni2
_chemical_formula_sum   'Cr50 Ni4'
_cell_volume   620.27186979
_cell_formula_units_Z   2
loop_
 _symmetry_equiv_pos_site_id
 _symmetry_equiv_pos_as_xyz
  1  'x, y, z'
loop_
 _atom_site_type_symbol
 _atom_site_label
 _atom_site_symmetry_multiplicity
 _atom_site_fract_x
 _atom_site_fract_y
 _atom_site_fract_z
 _atom_site_occupancy
  Ni  Ni0  1  0.99104618  -0.00849008  -0.00859442  1
  Cr  Cr1  1  0.15722413  0.15646337  0.15719457  1
  Cr  Cr2  1  0.99035608  -0.00780257  0.32463731  1
  Cr  Cr3  1  0.99090856  0.32390763  0.99135554  1
  Cr  Cr4  1  0.15716815  0.49307142  0.15973362  1
  Cr  Cr5  1  -0.00835969  0.32570609  0.32513116  1
  Cr  Cr6  1  0.99081729  0.65787702  0.99106002  1
  Cr  Cr7  1  0.15640270  0.82473967  0.15800745  1
  Ni  Ni8  1  0.99138479  0.65829061  0.32482786  1
  Cr  Cr9  1  0.32433696  -0.00852877  0.99139390  1
  Cr  Cr10  1  0.49247494  0.15921788  0.15751284  1
  Cr  Cr11  1  0.32580293  -0.00765065  0.32509916  1
  Cr  Cr12  1  0.32447858  0.32517957  -0.00782874  1
  Cr  Cr13  1  0.49253363  0.49013234  0.15663639  1
  Cr  Cr14  1  0.32391271  0.32424844  0.32429777  1
  Cr  Cr15  1  0.32534721  0.65757140  0.99059088  1
  Cr  Cr16  1  0.49073952  0.82473828  0.15843197  1
  Cr  Cr17  1  0.32493563  0.65754467  0.32430799  1
  Cr  Cr18  1  0.65918932  0.99112602  -0.00783664  1
  Cr  Cr19  1  0.82446197  0.15815674  0.15580976  1
  Cr  Cr20  1  0.65799452  0.99108553  0.32511998  1
  Ni  Ni21  1  0.65839311  0.32438704  0.99091078  1
  Cr  Cr22  1  0.82455675  0.49134584  0.15839363  1
  Cr  Cr23  1  0.65861393  0.32424070  0.32432238  1
  Cr  Cr24  1  0.65802072  0.65757022  0.99137074  1
  Cr  Cr25  1  0.82713753  0.82468378  0.15849512  1
  Cr  Cr26  1  0.65934643  0.65882815  0.32430247  1
  Cr  Cr27  1  0.15822882  0.15743335  0.49138767  1
  Cr  Cr28  1  0.99083607  -0.00791667  0.65890660  1
  Cr  Cr29  1  0.15729418  0.15665453  0.82578707  1
  Cr  Cr30  1  0.15738973  0.49306632  0.49003122  1
  Cr  Cr31  1  0.99076270  0.32474696  0.65769539  1
  Cr  Cr32  1  0.15825941  0.49171956  0.82436153  1
  Cr  Cr33  1  0.15713512  0.82381807  0.49059495  1
  Cr  Cr34  1  0.99083315  0.65737352  0.65804362  1
  Cr  Cr35  1  0.15702076  0.82575099  0.82568208  1
  Cr  Cr36  1  0.49237826  0.15948222  0.49224744  1
  Cr  Cr37  1  0.32491225  -0.00854516  0.65768646  1
  Cr  Cr38  1  0.49331702  0.16003978  0.82429401  1
  Cr  Cr39  1  0.49241894  0.49024087  0.49266027  1
  Cr  Cr40  1  0.32387198  0.32472524  0.65771532  1
  Cr  Cr41  1  0.49327896  0.48908288  0.82478079  1
  Cr  Cr42  1  0.49077196  0.82444324  0.49139008  1
  Cr  Cr43  1  0.32491510  0.65800207  0.65928276  1
  Cr  Cr44  1  0.49107479  0.82499730  0.82436008  1
  Cr  Cr45  1  0.82348170  0.15918622  0.49275703  1
  Cr  Cr46  1  0.65844513  0.99126801  0.65689896  1
  Cr  Cr47  1  0.82348672  0.15887845  0.82566918  1
  Cr  Cr48  1  0.82436672  0.49146752  0.49130594  1
  Ni  Ni49  1  0.65807247  0.32472351  0.65843134  1
  Cr  Cr50  1  0.82255387  0.48926826  0.82429681  1
  Cr  Cr51  1  0.82637329  0.82363979  0.49007280  1
  Cr  Cr52  1  0.65846707  0.65816491  0.65851149  1
  Cr  Cr53  1  0.82610810  0.82592670  0.82574443  1
" 