8218,Ni93Cr7_3,-202.137652630153, 191.547978798921,Ni93Cr7,"# generated using pymatgen
 data_Cr25Ni2
_symmetry_space_group_name_H-M   'P 1'
_cell_length_a   7.59585389
_cell_length_b   7.59585389
_cell_length_c   10.74215959
_cell_angle_alpha   90.00000000
_cell_angle_beta   90.00000000
_cell_angle_gamma   90.00000000
_symmetry_Int_Tables_number   1
_chemical_formula_structural   Cr25Ni2
_chemical_formula_sum   'Cr50 Ni4'
_cell_volume   619.79034190
_cell_formula_units_Z   2
loop_
 _symmetry_equiv_pos_site_id
 _symmetry_equiv_pos_as_xyz
  1  'x, y, z'
loop_
 _atom_site_type_symbol
 _atom_site_label
 _atom_site_symmetry_multiplicity
 _atom_site_fract_x
 _atom_site_fract_y
 _atom_site_fract_z
 _atom_site_occupancy
  Cr  Cr0  1  0.99146126  0.99062311  -0.00814390  1
  Cr  Cr1  1  0.15825522  0.15769179  0.15777912  1
  Cr  Cr2  1  0.99147869  0.99090921  0.32485697  1
  Cr  Cr3  1  0.99146750  0.32589177  0.99148902  1
  Cr  Cr4  1  0.15874618  0.49177056  0.15780452  1
  Cr  Cr5  1  0.99147644  0.32588670  0.32485673  1
  Cr  Cr6  1  0.99085694  0.65808392  -0.00812395  1
  Cr  Cr7  1  0.15808266  0.82509151  0.15854923  1
  Cr  Cr8  1  0.99093537  0.65776226  0.32481782  1
  Cr  Cr9  1  0.32631275  0.99010217  0.99136494  1
  Cr  Cr10  1  0.49169863  0.15831293  0.15856975  1
  Cr  Cr11  1  0.32541272  0.99107759  0.32409512  1
  Cr  Cr12  1  0.32528031  0.32538774  -0.00739539  1
  Cr  Cr13  1  0.49339388  0.49335113  0.15850883  1
  Cr  Cr14  1  0.32498546  0.32527305  0.32406932  1
  Cr  Cr15  1  0.32615738  0.65915223  0.99027729  1
  Cr  Cr16  1  0.49341694  0.82294626  0.15810758  1
  Cr  Cr17  1  0.32517275  0.65820016  0.32525565  1
  Cr  Cr18  1  0.65672868  0.98964822  0.98991595  1
  Cr  Cr19  1  0.82461866  0.15762693  0.15779895  1
  Cr  Cr20  1  0.65767966  0.99063354  0.32558607  1
  Cr  Cr21  1  0.65780164  0.32589527  0.99112133  1
  Cr  Cr22  1  0.82239560  0.49355890  0.15777609  1
  Cr  Cr23  1  0.65811415  0.32571815  0.32561238  1
  Ni  Ni24  1  0.65661796  0.65957298  0.99074763  1
  Cr  Cr25  1  0.82298476  0.82333019  0.15853019  1
  Ni  Ni26  1  0.65798929  0.65815963  0.32441305  1
  Cr  Cr27  1  0.15854410  0.15764268  0.49154980  1
  Cr  Cr28  1  0.99056557  0.99062167  0.65785058  1
  Cr  Cr29  1  0.15813466  0.15807230  0.82521136  1
  Cr  Cr30  1  0.15972998  0.49246096  0.49316799  1
  Cr  Cr31  1  0.99059005  0.32589324  0.65821771  1
  Cr  Cr32  1  0.15929880  0.49200066  0.82361721  1
  Cr  Cr33  1  0.15911712  0.82443126  0.49244530  1
  Cr  Cr34  1  -0.00747604  0.65808386  0.65786973  1
  Cr  Cr35  1  0.15985199  0.82438222  0.82363406  1
  Cr  Cr36  1  0.49111143  0.15831284  0.49114333  1
  Cr  Cr37  1  0.32680287  0.98903210  0.65904608  1
  Cr  Cr38  1  0.49109631  0.15747717  0.82485084  1
  Cr  Cr39  1  0.49155410  0.49324346  0.49119969  1
  Cr  Cr40  1  0.32573340  0.32653231  0.65787156  1
  Cr  Cr41  1  0.49153493  0.49387283  0.82485517  1
  Cr  Cr42  1  0.49153453  0.82305358  0.49160136  1
  Ni  Ni43  1  0.32663976  0.65956457  0.65941254  1
  Ni  Ni44  1  0.49150100  0.82220813  0.82486041  1
  Cr  Cr45  1  0.82490307  0.15767642  0.49229097  1
  Cr  Cr46  1  0.65720401  0.99069314  0.65912074  1
  Cr  Cr47  1  0.82533126  0.15807429  0.82449740  1
  Cr  Cr48  1  0.82331279  0.49283726  0.49071530  1
  Cr  Cr49  1  0.65824183  0.32477217  0.65784912  1
  Cr  Cr50  1  0.82377132  0.49239792  0.82604678  1
  Cr  Cr51  1  0.82395107  0.82402155  0.48993828  1
  Cr  Cr52  1  0.65682793  0.65915430  0.65901547  1
  Cr  Cr53  1  0.82321964  0.82397818  0.82602991  1
" 