3979,Ni93Cr7_15,-202.12191622209, 191.840085073872,Ni93Cr7,"# generated using pymatgen
 data_Cr25Ni2
_symmetry_space_group_name_H-M   'P 1'
_cell_length_a   7.59643761
_cell_length_b   7.59643761
_cell_length_c   10.74298509
_cell_angle_alpha   90.00000000
_cell_angle_beta   90.00000000
_cell_angle_gamma   90.00000000
_symmetry_Int_Tables_number   1
_chemical_formula_structural   Cr25Ni2
_chemical_formula_sum   'Cr50 Ni4'
_cell_volume   619.93324047
_cell_formula_units_Z   2
loop_
 _symmetry_equiv_pos_site_id
 _symmetry_equiv_pos_as_xyz
  1  'x, y, z'
loop_
 _atom_site_type_symbol
 _atom_site_label
 _atom_site_symmetry_multiplicity
 _atom_site_fract_x
 _atom_site_fract_y
 _atom_site_fract_z
 _atom_site_occupancy
  Cr  Cr0  1  0.99103425  -0.00799194  -0.00785123  1
  Cr  Cr1  1  0.15760635  0.15794906  0.15824337  1
  Cr  Cr2  1  0.99047364  0.99057426  0.32548256  1
  Cr  Cr3  1  -0.00847629  0.32441018  0.99108432  1
  Cr  Cr4  1  0.15807116  0.49213558  0.15824472  1
  Cr  Cr5  1  0.99058587  0.32432158  0.32450725  1
  Cr  Cr6  1  0.99044086  0.65803988  -0.00814125  1
  Cr  Cr7  1  0.15828094  0.82436481  0.15777371  1
  Cr  Cr8  1  0.98996908  0.65954977  0.32582556  1
  Cr  Cr9  1  0.32534251  -0.00752775  -0.00723299  1
  Cr  Cr10  1  0.49306171  0.15910186  0.15951847  1
  Cr  Cr11  1  0.32486786  -0.00831158  0.32363412  1
  Cr  Cr12  1  0.32470830  0.32374676  0.99024209  1
  Cr  Cr13  1  0.49257873  0.49100374  0.15950992  1
  Cr  Cr14  1  0.32527305  0.32375574  0.32570963  1
  Cr  Cr15  1  0.32534530  0.65823504  0.99103657  1
  Cr  Cr16  1  0.49120148  0.82434827  0.15737767  1
  Cr  Cr17  1  0.32486940  0.65899298  0.32529781  1
  Cr  Cr18  1  0.65808365  0.99137933  0.99138911  1
  Cr  Cr19  1  0.82377366  0.15928233  0.15871477  1
  Cr  Cr20  1  0.65905011  0.99106376  0.32543549  1
  Cr  Cr21  1  0.65820471  0.32442723  -0.00848447  1
  Cr  Cr22  1  0.82378669  0.49030126  0.15866845  1
  Ni  Ni23  1  0.65828988  0.32465279  0.32452547  1
  Cr  Cr24  1  0.65866647  0.65867378  0.99107053  1
  Cr  Cr25  1  0.82494472  0.82482195  0.15792400  1
  Cr  Cr26  1  0.65956057  0.65911696  0.32574616  1
  Cr  Cr27  1  0.15674470  0.15696392  0.49254606  1
  Ni  Ni28  1  0.98769789  0.99004897  0.65692043  1
  Cr  Cr29  1  0.15640112  0.15630068  0.82383914  1
  Cr  Cr30  1  0.15826288  0.49175603  0.49151447  1
  Cr  Cr31  1  -0.00833455  0.32397032  0.65885939  1
  Cr  Cr32  1  0.15778114  0.49253327  0.82473390  1
  Cr  Cr33  1  0.15620535  0.82579345  0.49210741  1
  Cr  Cr34  1  0.98987639  0.65912931  0.65674586  1
  Cr  Cr35  1  0.15707006  0.82561432  0.82462378  1
  Cr  Cr36  1  0.49372023  0.15824002  0.49112646  1
  Cr  Cr37  1  0.32548230  -0.00792246  0.65801228  1
  Cr  Cr38  1  0.49329886  0.15669007  0.82377882  1
  Cr  Cr39  1  0.49237864  0.49059894  0.49026143  1
  Cr  Cr40  1  0.32471862  0.32468218  0.65849318  1
  Cr  Cr41  1  0.49186101  0.49206049  0.82473466  1
  Cr  Cr42  1  0.49311732  0.82578959  0.49247384  1
  Cr  Cr43  1  0.32533563  0.65763290  0.65805005  1
  Cr  Cr44  1  0.49226152  0.82577774  0.82446212  1
  Cr  Cr45  1  0.82405951  0.15663359  0.49240515  1
  Ni  Ni46  1  0.66199651  0.99028623  0.65696772  1
  Cr  Cr47  1  0.82478577  0.15622479  0.82330998  1
  Cr  Cr48  1  0.82381771  0.49110532  0.48995235  1
  Cr  Cr49  1  0.65808175  0.32416330  0.65837171  1
  Cr  Cr50  1  0.82480683  0.49143110  0.82587155  1
  Ni  Ni51  1  0.82473789  0.82750284  0.49405248  1
  Cr  Cr52  1  0.65919524  0.65994203  0.65759464  1
  Cr  Cr53  1  0.82515447  0.82674288  0.82304877  1
" 