6289,Ni93Cr7_0,-202.177046406916, 192.801960516034,Ni93Cr7,"# generated using pymatgen
 data_Cr25Ni2
_symmetry_space_group_name_H-M   'P 1'
_cell_length_a   7.59391567
_cell_length_b   7.59391567
_cell_length_c   10.73941853
_cell_angle_alpha   90.00000000
_cell_angle_beta   90.00000000
_cell_angle_gamma   90.00000000
_symmetry_Int_Tables_number   1
_chemical_formula_structural   Cr25Ni2
_chemical_formula_sum   'Cr50 Ni4'
_cell_volume   619.31601127
_cell_formula_units_Z   2
loop_
 _symmetry_equiv_pos_site_id
 _symmetry_equiv_pos_as_xyz
  1  'x, y, z'
loop_
 _atom_site_type_symbol
 _atom_site_label
 _atom_site_symmetry_multiplicity
 _atom_site_fract_x
 _atom_site_fract_y
 _atom_site_fract_z
 _atom_site_occupancy
  Cr  Cr0  1  0.98996926  0.99000577  -0.00729980  1
  Cr  Cr1  1  0.15717743  0.15914742  0.15969546  1
  Cr  Cr2  1  0.99000951  0.99164511  0.32357842  1
  Cr  Cr3  1  0.99084992  0.32559019  -0.00818014  1
  Cr  Cr4  1  0.15707304  0.49069699  0.15928132  1
  Ni  Ni5  1  0.99088472  0.32531030  0.32516244  1
  Cr  Cr6  1  0.99058215  0.65938077  -0.00810592  1
  Cr  Cr7  1  0.15780506  0.82510377  0.15757365  1
  Cr  Cr8  1  0.98951551  0.65836799  0.32358039  1
  Cr  Cr9  1  0.32506720  -0.00815827  -0.00782599  1
  Cr  Cr10  1  0.49259679  0.15909042  0.15662289  1
  Cr  Cr11  1  0.32561182  -0.00768583  0.32487872  1
  Cr  Cr12  1  0.32637359  0.32553068  -0.00826979  1
  Cr  Cr13  1  0.49369112  0.49183854  0.15796269  1
  Cr  Cr14  1  0.32418838  0.32507592  0.32535838  1
  Cr  Cr15  1  0.32438245  0.65755963  0.99134310  1
  Cr  Cr16  1  0.49313394  0.82387685  0.15969158  1
  Cr  Cr17  1  0.32620862  0.65759195  0.32486112  1
  Cr  Cr18  1  0.65988254  -0.00818178  -0.00728886  1
  Cr  Cr19  1  0.82509419  0.15964611  0.15798596  1
  Cr  Cr20  1  0.65946551  0.98983042  0.32439948  1
  Ni  Ni21  1  0.65871068  0.32518512  0.99134251  1
  Cr  Cr22  1  0.82407987  0.49137332  0.15924871  1
  Cr  Cr23  1  0.65854487  0.32553461  0.32520016  1
  Cr  Cr24  1  0.65990665  0.65838052  -0.00690103  1
  Ni  Ni25  1  0.82345490  0.82352389  0.15968211  1
  Ni  Ni26  1  0.66021442  0.65920968  0.32368750  1
  Cr  Cr27  1  0.15657931  0.15848602  0.49004489  1
  Cr  Cr28  1  0.99052577  0.99152760  0.65868775  1
  Cr  Cr29  1  0.15774567  0.15764145  0.82508185  1
  Cr  Cr30  1  0.15646444  0.49134121  0.49047943  1
  Cr  Cr31  1  -0.00831947  0.32553862  0.65743020  1
  Cr  Cr32  1  0.15774110  0.49184831  0.82508666  1
  Cr  Cr33  1  0.15859158  0.82515016  0.49281815  1
  Cr  Cr34  1  0.99121249  0.65789103  0.65955859  1
  Cr  Cr35  1  0.15892752  0.82545221  0.82459497  1
  Cr  Cr36  1  0.49204142  0.15755754  0.49194146  1
  Cr  Cr37  1  0.32553785  -0.00732782  0.65785628  1
  Cr  Cr38  1  0.49296737  0.15852481  0.82658994  1
  Cr  Cr39  1  0.49335478  0.49338566  0.49056480  1
  Cr  Cr40  1  0.32552765  0.32553496  0.65784862  1
  Cr  Cr41  1  0.49340100  0.49147677  0.82653686  1
  Cr  Cr42  1  0.49224891  0.82388030  0.49089022  1
  Cr  Cr43  1  0.32483481  0.65673038  0.65872479  1
  Cr  Cr44  1  0.49136786  0.82497781  0.82419640  1
  Cr  Cr45  1  0.82619990  0.15954822  0.49138681  1
  Cr  Cr46  1  0.65888074  -0.00780484  0.65786971  1
  Cr  Cr47  1  0.82430576  0.15960507  0.82563511  1
  Cr  Cr48  1  0.82501198  0.49157612  0.49001195  1
  Cr  Cr49  1  0.65771652  0.32481893  0.65915765  1
  Cr  Cr50  1  0.82386794  0.49042547  0.82561291  1
  Cr  Cr51  1  0.82419805  0.82380031  0.49091305  1
  Cr  Cr52  1  0.65888083  0.65789018  0.65741733  1
  Cr  Cr53  1  0.82463748  0.82497682  0.82472193  1
" 