1701,Ni93Cr7_2,-202.151816730298, 191.46395754165,Ni93Cr7,"# generated using pymatgen
 data_Cr25Ni2
_symmetry_space_group_name_H-M   'P 1'
_cell_length_a   7.59476237
_cell_length_b   7.59476237
_cell_length_c   10.74061594
_cell_angle_alpha   90.00000000
_cell_angle_beta   90.00000000
_cell_angle_gamma   90.00000000
_symmetry_Int_Tables_number   1
_chemical_formula_structural   Cr25Ni2
_chemical_formula_sum   'Cr50 Ni4'
_cell_volume   619.52318902
_cell_formula_units_Z   2
loop_
 _symmetry_equiv_pos_site_id
 _symmetry_equiv_pos_as_xyz
  1  'x, y, z'
loop_
 _atom_site_type_symbol
 _atom_site_label
 _atom_site_symmetry_multiplicity
 _atom_site_fract_x
 _atom_site_fract_y
 _atom_site_fract_z
 _atom_site_occupancy
  Cr  Cr0  1  0.99015561  0.99062531  -0.00736578  1
  Cr  Cr1  1  0.15720975  0.15748998  0.15961930  1
  Ni  Ni2  1  0.98973300  0.99003983  0.32360801  1
  Cr  Cr3  1  -0.00833058  0.32473459  0.99043279  1
  Cr  Cr4  1  0.15900494  0.49178166  0.15790174  1
  Cr  Cr5  1  0.99123604  0.32349117  0.32514694  1
  Cr  Cr6  1  0.99050987  0.65933074  -0.00811001  1
  Cr  Cr7  1  0.15661667  0.82563170  0.15957117  1
  Cr  Cr8  1  0.99002830  0.66033304  0.32376471  1
  Cr  Cr9  1  0.32562713  -0.00828228  0.99050728  1
  Cr  Cr10  1  0.49266187  0.15802701  0.15697186  1
  Cr  Cr11  1  0.32377266  -0.00828266  0.32606519  1
  Cr  Cr12  1  0.32552200  0.32531504  -0.00686226  1
  Ni  Ni13  1  0.49231128  0.49199426  0.15821744  1
  Cr  Cr14  1  0.32632193  0.32540535  0.32330227  1
  Cr  Cr15  1  0.32555505  0.65776312  -0.00725834  1
  Cr  Cr16  1  0.49307376  0.82523298  0.15700946  1
  Cr  Cr17  1  0.32639146  0.65767666  0.32369788  1
  Ni  Ni18  1  0.65982326  0.99014201  -0.00712574  1
  Cr  Cr19  1  0.82482249  0.15615986  0.15827491  1
  Cr  Cr20  1  0.65971752  0.99058782  0.32428991  1
  Cr  Cr21  1  0.65775016  0.32467234  -0.00731508  1
  Cr  Cr22  1  0.82453930  0.49242276  0.15824079  1
  Cr  Cr23  1  0.65729098  0.32591397  0.32464581  1
  Cr  Cr24  1  0.65884182  0.65928845  -0.00599540  1
  Ni  Ni25  1  0.82446213  0.82728721  0.15826750  1
  Cr  Cr26  1  0.65834626  0.65824419  0.32325331  1
  Cr  Cr27  1  0.15719118  0.15759634  0.48944326  1
  Cr  Cr28  1  -0.00830663  0.99156406  0.65783006  1
  Cr  Cr29  1  0.15816872  0.15836168  0.82558034  1
  Cr  Cr30  1  0.15780615  0.49214670  0.49183078  1
  Cr  Cr31  1  0.99147946  0.32419514  0.65921917  1
  Cr  Cr32  1  0.15802992  0.49207867  0.82508580  1
  Cr  Cr33  1  0.15780020  0.82506276  0.49032841  1
  Cr  Cr34  1  0.99108930  0.65904992  0.65918641  1
  Cr  Cr35  1  0.15880196  0.82434627  0.82469627  1
  Cr  Cr36  1  0.49217624  0.15776830  0.49181200  1
  Cr  Cr37  1  0.32454896  -0.00803458  0.65826390  1
  Cr  Cr38  1  0.49313996  0.15695651  0.82621648  1
  Cr  Cr39  1  0.49169885  0.49207139  0.49103240  1
  Cr  Cr40  1  0.32497062  0.32399172  0.65826634  1
  Cr  Cr41  1  0.49190150  0.49213788  0.82510052  1
  Cr  Cr42  1  0.49151734  0.82496927  0.49275468  1
  Cr  Cr43  1  0.32496526  0.65883599  0.65826747  1
  Cr  Cr44  1  0.49251507  0.82574016  0.82528302  1
  Cr  Cr45  1  0.82538206  0.15775378  0.49035972  1
  Cr  Cr46  1  0.65854256  0.99157121  0.65868199  1
  Cr  Cr47  1  0.82346349  0.15768059  0.82621166  1
  Cr  Cr48  1  0.82531353  0.49144728  0.49278322  1
  Cr  Cr49  1  0.65832245  0.32462701  0.65733293  1
  Cr  Cr50  1  0.82488247  0.49144472  0.82369547  1
  Cr  Cr51  1  0.82535783  0.82544152  0.49006490  1
  Cr  Cr52  1  0.65871962  0.65860890  0.65736444  1
  Cr  Cr53  1  0.82349088  0.82552430  0.82651628  1
" 