8634,Ni93Cr7_19,-202.048437053161, 190.006807994961,Ni93Cr7,"# generated using pymatgen
 data_Cr25Ni2
_symmetry_space_group_name_H-M   'P 1'
_cell_length_a   7.59684874
_cell_length_b   7.59684874
_cell_length_c   10.74356652
_cell_angle_alpha   90.00000000
_cell_angle_beta   90.00000000
_cell_angle_gamma   90.00000000
_symmetry_Int_Tables_number   1
_chemical_formula_structural   Cr25Ni2
_chemical_formula_sum   'Cr50 Ni4'
_cell_volume   620.03390096
_cell_formula_units_Z   2
loop_
 _symmetry_equiv_pos_site_id
 _symmetry_equiv_pos_as_xyz
  1  'x, y, z'
loop_
 _atom_site_type_symbol
 _atom_site_label
 _atom_site_symmetry_multiplicity
 _atom_site_fract_x
 _atom_site_fract_y
 _atom_site_fract_z
 _atom_site_occupancy
  Cr  Cr0  1  0.99048072  -0.00842960  -0.00854309  1
  Cr  Cr1  1  0.15939976  0.15906625  0.15745716  1
  Cr  Cr2  1  0.99142608  -0.00746845  0.32393230  1
  Cr  Cr3  1  0.99144052  0.32473808  -0.00854309  1
  Cr  Cr4  1  0.15935193  0.49052901  0.15755839  1
  Cr  Cr5  1  -0.00803063  0.32529905  0.32611893  1
  Cr  Cr6  1  0.99141063  0.65805789  -0.00854309  1
  Cr  Cr7  1  0.15796055  0.82474599  0.15847813  1
  Cr  Cr8  1  -0.00807253  0.65660300  0.32439482  1
  Cr  Cr9  1  0.32573980  -0.00803831  -0.00854309  1
  Cr  Cr10  1  0.49184618  0.15953496  0.15602419  1
  Cr  Cr11  1  0.32530814  -0.00815747  0.32474779  1
  Ni  Ni12  1  0.32752335  0.32441966  -0.00854309  1
  Cr  Cr13  1  0.49154722  0.48926537  0.15624765  1
  Cr  Cr14  1  0.32417942  0.32530200  0.32554899  1
  Cr  Cr15  1  0.32488944  0.65758138  -0.00854309  1
  Cr  Cr16  1  0.49197699  0.82550196  0.15827032  1
  Cr  Cr17  1  0.32481711  0.65725211  0.32521443  1
  Ni  Ni18  1  0.65779156  -0.00581931  -0.00854309  1
  Cr  Cr19  1  0.82313946  0.15857289  0.15709680  1
  Cr  Cr20  1  0.65762300  -0.00811091  0.32465942  1
  Ni  Ni21  1  0.65581545  0.32214081  -0.00854309  1
  Cr  Cr22  1  0.82351175  0.49032718  0.15742265  1
  Cr  Cr23  1  0.65823541  0.32475276  0.32503645  1
  Cr  Cr24  1  0.65806313  0.65854394  -0.00854309  1
  Cr  Cr25  1  0.82439635  0.82546792  0.15790955  1
  Cr  Cr26  1  0.65760508  0.65773587  0.32479922  1
  Cr  Cr27  1  0.15813828  0.15864263  0.49145691  1
  Cr  Cr28  1  0.99142608  -0.00746845  0.65898152  1
  Cr  Cr29  1  0.15939976  0.15906625  0.82545665  1
  Ni  Ni30  1  0.15809612  0.49181999  0.49145691  1
  Cr  Cr31  1  -0.00803063  0.32529905  0.65679489  1
  Cr  Cr32  1  0.15935193  0.49052901  0.82535543  1
  Cr  Cr33  1  0.15768324  0.82382933  0.49145691  1
  Cr  Cr34  1  -0.00807253  0.65660300  0.65851899  1
  Cr  Cr35  1  0.15796055  0.82474599  0.82443569  1
  Cr  Cr36  1  0.49141120  0.15818848  0.49145691  1
  Cr  Cr37  1  0.32530814  -0.00815747  0.65816603  1
  Cr  Cr38  1  0.49184618  0.15953496  0.82688963  1
  Cr  Cr39  1  0.49049596  0.49143784  0.49145691  1
  Cr  Cr40  1  0.32417942  0.32530200  0.65736483  1
  Cr  Cr41  1  0.49154722  0.48926537  0.82666617  1
  Cr  Cr42  1  0.49141117  0.82474500  0.49145691  1
  Cr  Cr43  1  0.32481711  0.65725211  0.65769939  1
  Cr  Cr44  1  0.49197699  0.82550196  0.82464350  1
  Cr  Cr45  1  0.82482504  0.15773007  0.49145691  1
  Cr  Cr46  1  0.65762300  -0.00811091  0.65825439  1
  Cr  Cr47  1  0.82313946  0.15857289  0.82581702  1
  Cr  Cr48  1  0.82574001  0.49190151  0.49145691  1
  Cr  Cr49  1  0.65823541  0.32475276  0.65787737  1
  Cr  Cr50  1  0.82351175  0.49032718  0.82549117  1
  Cr  Cr51  1  0.82527501  0.82474476  0.49145691  1
  Cr  Cr52  1  0.65760508  0.65773587  0.65811460  1
  Cr  Cr53  1  0.82439635  0.82546792  0.82500427  1
" 