4901,Ni93Cr7_7,-202.086157887761, 190.462152671534,Ni93Cr7,"# generated using pymatgen
 data_Cr25Ni2
_symmetry_space_group_name_H-M   'P 1'
_cell_length_a   7.59650011
_cell_length_b   7.59650011
_cell_length_c   10.74307349
_cell_angle_alpha   90.00000000
_cell_angle_beta   90.00000000
_cell_angle_gamma   90.00000000
_symmetry_Int_Tables_number   1
_chemical_formula_structural   Cr25Ni2
_chemical_formula_sum   'Cr50 Ni4'
_cell_volume   619.94854327
_cell_formula_units_Z   2
loop_
 _symmetry_equiv_pos_site_id
 _symmetry_equiv_pos_as_xyz
  1  'x, y, z'
loop_
 _atom_site_type_symbol
 _atom_site_label
 _atom_site_symmetry_multiplicity
 _atom_site_fract_x
 _atom_site_fract_y
 _atom_site_fract_z
 _atom_site_occupancy
  Cr  Cr0  1  -0.00747598  -0.00765945  0.99029391  1
  Cr  Cr1  1  0.15811049  0.15827241  0.15764288  1
  Cr  Cr2  1  0.99034577  0.99091769  0.32388444  1
  Cr  Cr3  1  -0.00810475  0.32350214  0.99095679  1
  Cr  Cr4  1  0.15810762  0.49146984  0.15895070  1
  Cr  Cr5  1  0.99100204  0.32522204  0.32438269  1
  Cr  Cr6  1  0.99017561  0.65872123  -0.00722584  1
  Cr  Cr7  1  0.15852241  0.82467040  0.15853954  1
  Cr  Cr8  1  0.99115918  0.65835010  0.32483023  1
  Cr  Cr9  1  0.32327148  -0.00716738  0.98943376  1
  Cr  Cr10  1  0.49233740  0.15680727  0.15987437  1
  Cr  Cr11  1  0.32504548  -0.00849532  0.32481474  1
  Cr  Cr12  1  0.32443343  0.32347397  0.99128540  1
  Cr  Cr13  1  0.49166745  0.49230383  0.15629266  1
  Cr  Cr14  1  0.32543865  0.32519334  0.32388208  1
  Cr  Cr15  1  0.32521677  0.65807577  -0.00813436  1
  Cr  Cr16  1  0.49242675  0.82526791  0.15761292  1
  Cr  Cr17  1  0.32464881  0.65775494  0.32578393  1
  Cr  Cr18  1  0.65869107  -0.00832472  0.99146845  1
  Cr  Cr19  1  0.82391275  0.15719913  0.15993271  1
  Ni  Ni20  1  0.65804479  0.99058984  0.32479355  1
  Cr  Cr21  1  0.65808198  0.32593308  -0.00812320  1
  Cr  Cr22  1  0.82451637  0.49193231  0.15628059  1
  Cr  Cr23  1  0.65802144  0.32429578  0.32476984  1
  Ni  Ni24  1  0.65803610  0.65869432  -0.00845836  1
  Cr  Cr25  1  0.82325437  0.82528522  0.15760056  1
  Cr  Cr26  1  0.65862780  0.65785801  0.32521958  1
  Cr  Cr27  1  0.15726375  0.15920367  0.49289747  1
  Cr  Cr28  1  -0.00797308  -0.00770676  0.66003526  1
  Ni  Ni29  1  0.15680871  0.15988494  0.82341336  1
  Cr  Cr30  1  0.15730366  0.49023064  0.49214561  1
  Ni  Ni31  1  -0.00689561  0.32335722  0.65958488  1
  Cr  Cr32  1  0.15725982  0.48996945  0.82347979  1
  Cr  Cr33  1  0.15823990  0.82503498  0.49110680  1
  Cr  Cr34  1  0.99098134  0.65797410  0.65689586  1
  Cr  Cr35  1  0.15821087  0.82515191  0.82476526  1
  Cr  Cr36  1  0.49236227  0.15683903  0.48948642  1
  Cr  Cr37  1  0.32414556  -0.00798384  0.66006210  1
  Cr  Cr38  1  0.49071313  0.15808913  0.82479300  1
  Cr  Cr39  1  0.49089054  0.49110063  0.49197570  1
  Cr  Cr40  1  0.32494698  0.32390193  0.65909122  1
  Cr  Cr41  1  0.49209617  0.49270452  0.82636340  1
  Cr  Cr42  1  0.49197216  0.82615375  0.49099527  1
  Cr  Cr43  1  0.32520159  0.65848566  0.65688565  1
  Cr  Cr44  1  0.49235026  0.82399413  0.82585131  1
  Cr  Cr45  1  0.82506203  0.15797647  0.49101328  1
  Cr  Cr46  1  0.65824988  -0.00847639  0.65740831  1
  Cr  Cr47  1  0.82638988  0.15921286  0.82340603  1
  Cr  Cr48  1  0.82654143  0.48986981  0.49352783  1
  Cr  Cr49  1  0.65927308  0.32488924  0.65780806  1
  Cr  Cr50  1  0.82514479  0.49163631  0.82496899  1
  Cr  Cr51  1  0.82400788  0.82634565  0.49046907  1
  Cr  Cr52  1  0.65819315  0.65796818  0.65856092  1
  Cr  Cr53  1  0.82363566  0.82394013  0.82631565  1
" 