6894,Ni93Cr7_12,-202.143598716894, 192.691212116178,Ni93Cr7,"# generated using pymatgen
 data_Cr25Ni2
_symmetry_space_group_name_H-M   'P 1'
_cell_length_a   7.59606601
_cell_length_b   7.59606601
_cell_length_c   10.74245957
_cell_angle_alpha   90.00000000
_cell_angle_beta   90.00000000
_cell_angle_gamma   90.00000000
_symmetry_Int_Tables_number   1
_chemical_formula_structural   Cr25Ni2
_chemical_formula_sum   'Cr50 Ni4'
_cell_volume   619.84226763
_cell_formula_units_Z   2
loop_
 _symmetry_equiv_pos_site_id
 _symmetry_equiv_pos_as_xyz
  1  'x, y, z'
loop_
 _atom_site_type_symbol
 _atom_site_label
 _atom_site_symmetry_multiplicity
 _atom_site_fract_x
 _atom_site_fract_y
 _atom_site_fract_z
 _atom_site_occupancy
  Cr  Cr0  1  0.99132126  0.99131957  -0.00848410  1
  Cr  Cr1  1  0.15925080  0.15861841  0.15852710  1
  Cr  Cr2  1  0.99090269  0.99091449  0.32447462  1
  Cr  Cr3  1  -0.00807449  0.32421731  0.99080151  1
  Cr  Cr4  1  0.15770019  0.49131408  0.15816333  1
  Cr  Cr5  1  0.99150755  0.32484088  0.32484088  1
  Cr  Cr6  1  0.99146286  0.65900115  0.99115249  1
  Cr  Cr7  1  0.15868303  0.82457912  0.15887986  1
  Cr  Cr8  1  -0.00788758  0.65876728  0.32520715  1
  Cr  Cr9  1  0.32547211  -0.00758096  -0.00768466  1
  Ni  Ni10  1  0.49161653  0.15838018  0.15812997  1
  Cr  Cr11  1  0.32610902  -0.00796432  0.32335968  1
  Cr  Cr12  1  0.32582024  0.32411661  -0.00729085  1
  Cr  Cr13  1  0.49269821  0.49188186  0.15751418  1
  Cr  Cr14  1  0.32707145  0.32538588  0.32407312  1
  Cr  Cr15  1  0.32528357  0.65802175  -0.00847545  1
  Cr  Cr16  1  0.49235383  0.82471771  0.15702817  1
  Cr  Cr17  1  0.32547191  0.65709158  0.32607011  1
  Cr  Cr18  1  0.65777768  -0.00817750  -0.00731180  1
  Cr  Cr19  1  0.82403130  0.15902582  0.15886625  1
  Cr  Cr20  1  0.65754319  -0.00740981  0.32361166  1
  Cr  Cr21  1  0.65683452  0.32392364  -0.00808316  1
  Cr  Cr22  1  0.82410777  0.49226576  0.15706527  1
  Cr  Cr23  1  0.65594366  0.32429589  0.32560865  1
  Ni  Ni24  1  0.65811914  0.65818170  -0.00846636  1
  Cr  Cr25  1  0.82347534  0.82320543  0.15776625  1
  Cr  Cr26  1  0.65690609  0.65764609  0.32632209  1
  Cr  Cr27  1  0.15890733  0.15741601  0.49261650  1
  Cr  Cr28  1  -0.00844775  0.99068062  0.65852928  1
  Cr  Cr29  1  0.15946095  0.15766188  0.82323676  1
  Cr  Cr30  1  0.15898380  0.49065595  0.49081552  1
  Cr  Cr31  1  0.99108959  0.32546446  0.65888026  1
  Cr  Cr32  1  0.15830259  0.49087048  0.82558141  1
  Cr  Cr33  1  0.15953976  0.82647634  0.49191552  1
  Cr  Cr34  1  -0.00830615  0.65836220  0.65816587  1
  Cr  Cr35  1  0.16016500  0.82602302  0.82356455  1
  Cr  Cr36  1  0.49031689  0.15779991  0.49216759  1
  Ni  Ni37  1  0.32489596  0.99150007  0.65814813  1
  Cr  Cr38  1  0.49034747  0.15701212  0.82400634  1
  Ni  Ni39  1  0.49139857  0.49130159  0.49155180  1
  Cr  Cr40  1  0.32618058  0.32575813  0.65776493  1
  Cr  Cr41  1  0.49266763  0.49266965  0.82567543  1
  Cr  Cr42  1  0.49066128  0.82496406  0.49265360  1
  Cr  Cr43  1  0.32523742  0.65785927  0.65699357  1
  Cr  Cr44  1  0.49150755  0.82484088  0.82484088  1
  Cr  Cr45  1  0.82531491  0.15836769  0.49151844  1
  Cr  Cr46  1  0.65773154  -0.00833998  0.65815722  1
  Cr  Cr47  1  0.82471251  0.15881129  0.82410036  1
  Cr  Cr48  1  0.82376431  0.49106336  0.49115467  1
  Cr  Cr49  1  0.65719487  0.32556516  0.65697262  1
  Cr  Cr50  1  0.82355415  0.49201989  0.82644501  1
  Cr  Cr51  1  0.82433207  0.82510265  0.49080191  1
  Cr  Cr52  1  0.65754299  0.65726272  0.65736643  1
  Cr  Cr53  1  0.82285010  0.82365875  0.82611722  1
" 