729,Ni93Cr7_14,-202.101536659843, 190.994114423313,Ni93Cr7,"# generated using pymatgen
 data_Cr25Ni2
_symmetry_space_group_name_H-M   'P 1'
_cell_length_a   7.59568207
_cell_length_b   7.59568207
_cell_length_c   10.74191660
_cell_angle_alpha   90.00000000
_cell_angle_beta   90.00000000
_cell_angle_gamma   90.00000000
_symmetry_Int_Tables_number   1
_chemical_formula_structural   Cr25Ni2
_chemical_formula_sum   'Cr50 Ni4'
_cell_volume   619.74828338
_cell_formula_units_Z   2
loop_
 _symmetry_equiv_pos_site_id
 _symmetry_equiv_pos_as_xyz
  1  'x, y, z'
loop_
 _atom_site_type_symbol
 _atom_site_label
 _atom_site_symmetry_multiplicity
 _atom_site_fract_x
 _atom_site_fract_y
 _atom_site_fract_z
 _atom_site_occupancy
  Cr  Cr0  1  0.99019958  -0.00810040  -0.00811079  1
  Cr  Cr1  1  0.15843560  0.15868853  0.15829353  1
  Cr  Cr2  1  0.98918295  -0.00707549  0.32537499  1
  Cr  Cr3  1  0.99013809  0.32402102  -0.00805966  1
  Cr  Cr4  1  0.15754023  0.49056855  0.15823524  1
  Cr  Cr5  1  0.98897752  0.32328005  0.32491118  1
  Cr  Cr6  1  -0.00781346  0.65863750  -0.00842624  1
  Cr  Cr7  1  0.15814369  0.82535237  0.15900506  1
  Cr  Cr8  1  -0.00811138  0.65836821  0.32416119  1
  Cr  Cr9  1  0.32494108  0.99048799  0.99079934  1
  Cr  Cr10  1  0.49155593  0.15806561  0.15750441  1
  Cr  Cr11  1  0.32521086  0.99071948  0.32492765  1
  Cr  Cr12  1  0.32537666  0.32591468  0.99080487  1
  Cr  Cr13  1  0.49207159  0.49101435  0.15866447  1
  Cr  Cr14  1  0.32647387  0.32658109  0.32620583  1
  Cr  Cr15  1  0.32477648  0.65819148  -0.00808911  1
  Cr  Cr16  1  0.49207663  0.82549297  0.15825365  1
  Cr  Cr17  1  0.32576105  0.65728696  0.32544530  1
  Cr  Cr18  1  0.65954050  -0.00740653  -0.00725241  1
  Ni  Ni19  1  0.82517896  0.15820885  0.15843369  1
  Cr  Cr20  1  0.66023194  -0.00639070  0.32410297  1
  Cr  Cr21  1  0.65915558  0.32378881  -0.00722510  1
  Cr  Cr22  1  0.82497078  0.49108461  0.15752579  1
  Cr  Cr23  1  0.65913317  0.32389957  0.32537657  1
  Cr  Cr24  1  0.65764679  0.65819835  0.99114713  1
  Cr  Cr25  1  0.82436922  0.82461036  0.15829239  1
  Cr  Cr26  1  0.65696877  0.65710953  0.32585704  1
  Cr  Cr27  1  0.15781335  0.15827189  0.49187814  1
  Cr  Cr28  1  0.99052235  -0.00758257  0.65729849  1
  Cr  Cr29  1  0.15886644  0.15868958  0.82442938  1
  Cr  Cr30  1  0.15812765  0.49089042  0.49082937  1
  Cr  Cr31  1  0.99043572  0.32388529  0.65765785  1
  Cr  Cr32  1  0.15711779  0.49042101  0.82553178  1
  Cr  Cr33  1  0.15777241  0.82544780  0.49080807  1
  Cr  Cr34  1  -0.00838744  0.65830187  0.65881724  1
  Cr  Cr35  1  0.15772986  0.82549163  0.82480460  1
  Cr  Cr36  1  0.49168893  0.15882588  0.49155741  1
  Cr  Cr37  1  0.32478599  0.99086149  0.65884990  1
  Cr  Cr38  1  0.49120474  0.15813129  0.82558071  1
  Ni  Ni39  1  0.49319373  0.49254218  0.49286882  1
  Cr  Cr40  1  0.32582347  0.32629712  0.65772216  1
  Cr  Cr41  1  0.49349006  0.49154363  0.82390656  1
  Cr  Cr42  1  0.49298928  0.82409788  0.49196938  1
  Cr  Cr43  1  0.32625598  0.65736066  0.65740241  1
  Cr  Cr44  1  0.49346823  0.82489929  0.82424605  1
  Ni  Ni45  1  0.82442050  0.15848319  0.49113413  1
  Cr  Cr46  1  0.65915584  -0.00804404  0.65769915  1
  Cr  Cr47  1  0.82451219  0.15874352  0.82479639  1
  Cr  Cr48  1  0.82345314  0.49216684  0.49266228  1
  Cr  Cr49  1  0.65814766  0.32533889  0.65659315  1
  Cr  Cr50  1  0.82395260  0.49266159  0.82425640  1
  Cr  Cr51  1  0.82395918  0.82427497  0.49266334  1
  Ni  Ni52  1  0.65669903  0.65692506  0.65707520  1
  Cr  Cr53  1  0.82341803  0.82322523  0.82355208  1
" 