6145,Ni93Cr7_10,-202.153117925, 191.900599938889,Ni93Cr7,"# generated using pymatgen
 data_Cr25Ni2
_symmetry_space_group_name_H-M   'P 1'
_cell_length_a   7.59600299
_cell_length_b   7.59600299
_cell_length_c   10.74237045
_cell_angle_alpha   90.00000000
_cell_angle_beta   90.00000000
_cell_angle_gamma   90.00000000
_symmetry_Int_Tables_number   1
_chemical_formula_structural   Cr25Ni2
_chemical_formula_sum   'Cr50 Ni4'
_cell_volume   619.82684045
_cell_formula_units_Z   2
loop_
 _symmetry_equiv_pos_site_id
 _symmetry_equiv_pos_as_xyz
  1  'x, y, z'
loop_
 _atom_site_type_symbol
 _atom_site_label
 _atom_site_symmetry_multiplicity
 _atom_site_fract_x
 _atom_site_fract_y
 _atom_site_fract_z
 _atom_site_occupancy
  Cr  Cr0  1  -0.00801095  0.99102956  0.99129412  1
  Cr  Cr1  1  0.15823905  0.15637901  0.15849104  1
  Ni  Ni2  1  -0.00837931  0.99129638  0.32512875  1
  Cr  Cr3  1  0.99056362  0.32653855  -0.00791610  1
  Cr  Cr4  1  0.15672563  0.49262545  0.15726822  1
  Cr  Cr5  1  0.99114033  0.32467052  0.32388822  1
  Ni  Ni6  1  0.99037490  0.65731430  -0.00721560  1
  Cr  Cr7  1  0.15729858  0.82562334  0.15727349  1
  Cr  Cr8  1  0.99111175  0.65813495  0.32352062  1
  Ni  Ni9  1  0.32421147  0.99114851  0.99140309  1
  Cr  Cr10  1  0.49052715  0.15735454  0.15684546  1
  Cr  Cr11  1  0.32382620  0.99097319  0.32430236  1
  Cr  Cr12  1  0.32416480  0.32370720  -0.00838744  1
  Cr  Cr13  1  0.49234236  0.49141043  0.15889455  1
  Cr  Cr14  1  0.32419354  0.32529548  0.32514137  1
  Cr  Cr15  1  0.32373202  0.65926916  -0.00837021  1
  Cr  Cr16  1  0.49052603  0.82576106  0.15724046  1
  Cr  Cr17  1  0.32486071  0.65826218  0.32596838  1
  Cr  Cr18  1  0.65736201  0.99136730  0.99075776  1
  Cr  Cr19  1  0.82569009  0.15793740  0.15969356  1
  Cr  Cr20  1  0.65919688  0.99090829  0.32514376  1
  Cr  Cr21  1  0.65975243  0.32534684  -0.00705689  1
  Ni  Ni22  1  0.82648776  0.49297649  0.15676702  1
  Cr  Cr23  1  0.65922428  0.32579317  0.32306101  1
  Cr  Cr24  1  0.66028206  0.65771210  -0.00705787  1
  Cr  Cr25  1  0.82672987  0.82415744  0.15843861  1
  Cr  Cr26  1  0.65865930  0.65781008  0.32380438  1
  Cr  Cr27  1  0.15696234  0.15755731  0.49000864  1
  Cr  Cr28  1  -0.00811798  -0.00834976  0.65737034  1
  Cr  Cr29  1  0.15878387  0.15767710  0.82586029  1
  Cr  Cr30  1  0.15793193  0.49151137  0.49225329  1
  Cr  Cr31  1  -0.00795284  0.32430620  0.65860818  1
  Cr  Cr32  1  0.15751593  0.49262272  0.82517502  1
  Cr  Cr33  1  0.15652063  0.82542712  0.49006068  1
  Cr  Cr34  1  -0.00795888  0.65861374  0.65904061  1
  Cr  Cr35  1  0.15762904  0.82431241  0.82711378  1
  Cr  Cr36  1  0.49205745  0.15881769  0.49140394  1
  Cr  Cr37  1  0.32440063  0.99096823  0.65903950  1
  Cr  Cr38  1  0.49096558  0.15810789  0.82632081  1
  Cr  Cr39  1  0.49186852  0.49103287  0.49187922  1
  Cr  Cr40  1  0.32375154  0.32445786  0.65782257  1
  Cr  Cr41  1  0.49157538  0.49136436  0.82375449  1
  Cr  Cr42  1  0.49206563  0.82468226  0.49139982  1
  Cr  Cr43  1  0.32443698  0.65909852  0.65695696  1
  Cr  Cr44  1  0.49097455  0.82502646  0.82590512  1
  Cr  Cr45  1  0.82552478  0.15739167  0.49084233  1
  Cr  Cr46  1  0.65824405  0.99095998  0.65862602  1
  Cr  Cr47  1  0.82470813  0.15823658  0.82376818  1
  Cr  Cr48  1  0.82473713  0.49151670  0.49174524  1
  Cr  Cr49  1  0.65873167  0.32431165  0.65861515  1
  Cr  Cr50  1  0.82545761  0.49259677  0.82592841  1
  Cr  Cr51  1  0.82596533  0.82555958  0.49086498  1
  Cr  Cr52  1  0.65809176  0.65925928  0.65780797  1
  Cr  Cr53  1  0.82592462  0.82375852  0.82513432  1
" 