3546,Ni93Cr7_9,-202.050813231788, 190.020413270439,Ni93Cr7,"# generated using pymatgen
 data_Cr25Ni2
_symmetry_space_group_name_H-M   'P 1'
_cell_length_a   7.59645625
_cell_length_b   7.59645625
_cell_length_c   10.74301146
_cell_angle_alpha   90.00000000
_cell_angle_beta   90.00000000
_cell_angle_gamma   90.00000000
_symmetry_Int_Tables_number   1
_chemical_formula_structural   Cr25Ni2
_chemical_formula_sum   'Cr50 Ni4'
_cell_volume   619.93780483
_cell_formula_units_Z   2
loop_
 _symmetry_equiv_pos_site_id
 _symmetry_equiv_pos_as_xyz
  1  'x, y, z'
loop_
 _atom_site_type_symbol
 _atom_site_label
 _atom_site_symmetry_multiplicity
 _atom_site_fract_x
 _atom_site_fract_y
 _atom_site_fract_z
 _atom_site_occupancy
  Cr  Cr0  1  -0.00734917  -0.00758005  0.99087905  1
  Cr  Cr1  1  0.15852914  0.15768396  0.15884303  1
  Cr  Cr2  1  -0.00759704  0.99106317  0.32481564  1
  Cr  Cr3  1  -0.00785890  0.32437136  0.99047045  1
  Cr  Cr4  1  0.15861899  0.49109610  0.15810722  1
  Cr  Cr5  1  -0.00846431  0.32519432  0.32481564  1
  Cr  Cr6  1  0.99089088  0.65764118  0.99131882  1
  Cr  Cr7  1  0.15908621  0.82565949  0.15855286  1
  Cr  Cr8  1  0.99110310  0.65819173  0.32481564  1
  Cr  Cr9  1  0.32481564  -0.00666704  0.98985702  1
  Cr  Cr10  1  0.49110213  0.15768396  0.15884303  1
  Ni  Ni11  1  0.32481564  0.99142738  0.32481564  1
  Cr  Cr12  1  0.32481564  0.32300334  0.98977056  1
  Cr  Cr13  1  0.49101228  0.49109610  0.15810722  1
  Cr  Cr14  1  0.32481564  0.32388610  0.32481564  1
  Cr  Cr15  1  0.32481564  0.65817898  -0.00785269  1
  Cr  Cr16  1  0.49054506  0.82565949  0.15855286  1
  Cr  Cr17  1  0.32481564  0.65905842  0.32481564  1
  Cr  Cr18  1  0.65698044  -0.00758005  0.99087905  1
  Cr  Cr19  1  0.82481564  0.15814509  0.15893388  1
  Cr  Cr20  1  0.65722831  0.99106317  0.32481564  1
  Cr  Cr21  1  0.65749017  0.32437136  0.99047045  1
  Cr  Cr22  1  0.82481564  0.49047778  0.15729504  1
  Cr  Cr23  1  0.65809558  0.32519432  0.32481564  1
  Cr  Cr24  1  0.65874040  0.65764118  0.99131882  1
  Cr  Cr25  1  0.82481564  0.82579914  0.15733146  1
  Cr  Cr26  1  0.65852817  0.65819173  0.32481564  1
  Cr  Cr27  1  0.15852914  0.15768396  0.49078824  1
  Cr  Cr28  1  -0.00734917  -0.00758005  0.65875222  1
  Ni  Ni29  1  0.16008956  0.15851268  0.82481564  1
  Cr  Cr30  1  0.15861899  0.49109610  0.49152405  1
  Cr  Cr31  1  -0.00785890  0.32437136  0.65916082  1
  Cr  Cr32  1  0.15729970  0.49098503  0.82481564  1
  Cr  Cr33  1  0.15908621  0.82565949  0.49107841  1
  Cr  Cr34  1  0.99089088  0.65764118  0.65831245  1
  Cr  Cr35  1  0.15813711  0.82532385  0.82481564  1
  Cr  Cr36  1  0.49110213  0.15768396  0.49078824  1
  Cr  Cr37  1  0.32481564  -0.00666704  0.65977425  1
  Ni  Ni38  1  0.48954171  0.15851268  0.82481564  1
  Cr  Cr39  1  0.49101228  0.49109610  0.49152405  1
  Cr  Cr40  1  0.32481564  0.32300334  0.65986071  1
  Cr  Cr41  1  0.49233157  0.49098503  0.82481564  1
  Cr  Cr42  1  0.49054506  0.82565949  0.49107841  1
  Cr  Cr43  1  0.32481564  0.65817898  0.65748396  1
  Cr  Cr44  1  0.49149416  0.82532385  0.82481564  1
  Cr  Cr45  1  0.82481564  0.15814509  0.49069739  1
  Cr  Cr46  1  0.65698044  -0.00758005  0.65875222  1
  Cr  Cr47  1  0.82481564  0.15897265  0.82481564  1
  Cr  Cr48  1  0.82481564  0.49047778  0.49233623  1
  Cr  Cr49  1  0.65749017  0.32437136  0.65916082  1
  Ni  Ni50  1  0.82481564  0.49083117  0.82481564  1
  Cr  Cr51  1  0.82481564  0.82579914  0.49229981  1
  Cr  Cr52  1  0.65874040  0.65764118  0.65831245  1
  Cr  Cr53  1  0.82481564  0.82396423  0.82481564  1
" 