1743,Ni94Fe3Cr1_0,-239.065387862916, 178.070802483205,Ni94Fe3Cr1,"# generated using pymatgen
 data_Cr2FeNi51
_symmetry_space_group_name_H-M   'P 1'
_cell_length_a   7.46119718
_cell_length_b   7.46119718
_cell_length_c   10.55172624
_cell_angle_alpha   90.00000000
_cell_angle_beta   90.00000000
_cell_angle_gamma   90.00000000
_symmetry_Int_Tables_number   1
_chemical_formula_structural   Cr2FeNi51
_chemical_formula_sum   'Cr2 Fe1 Ni51'
_cell_volume   587.40893702
_cell_formula_units_Z   1
loop_
 _symmetry_equiv_pos_site_id
 _symmetry_equiv_pos_as_xyz
  1  'x, y, z'
loop_
 _atom_site_type_symbol
 _atom_site_label
 _atom_site_symmetry_multiplicity
 _atom_site_fract_x
 _atom_site_fract_y
 _atom_site_fract_z
 _atom_site_occupancy
  Ni  Ni0  1  0.00039206  1.00031042  0.99991474  1
  Ni  Ni1  1  0.16661175  0.16696937  0.16704110  1
  Ni  Ni2  1  0.00039206  1.00030787  0.33414281  1
  Ni  Ni3  1  0.00039206  0.33393398  1.00037554  1
  Ni  Ni4  1  0.16702523  0.50021854  0.16727061  1
  Ni  Ni5  1  0.00039206  0.33387984  0.33391924  1
  Ni  Ni6  1  0.00039206  0.66693670  0.00061193  1
  Ni  Ni7  1  0.16516529  0.83399100  0.16704391  1
  Ni  Ni8  1  0.00039206  0.66699249  0.33368265  1
  Ni  Ni9  1  0.33290978  0.00143695  0.99953478  1
  Ni  Ni10  1  0.50039206  0.16884883  0.16728160  1
  Ni  Ni11  1  0.33286522  0.00144591  0.33475246  1
  Ni  Ni12  1  0.33354670  0.33346291  1.00027421  1
  Ni  Ni13  1  0.50039206  0.49877443  0.16683367  1
  Ni  Ni14  1  0.33252750  0.33241874  0.33293393  1
  Ni  Ni15  1  0.33241864  0.66628457  0.99917800  1
  Cr  Cr16  1  0.50039206  0.83362905  0.16727707  1
  Ni  Ni17  1  0.33139715  0.66731111  0.33402757  1
  Ni  Ni18  1  0.66787434  0.00143695  0.99953478  1
  Ni  Ni19  1  0.83417236  0.16696937  0.16704110  1
  Ni  Ni20  1  0.66791889  0.00144591  0.33475246  1
  Ni  Ni21  1  0.66723742  0.33346291  1.00027421  1
  Ni  Ni22  1  0.83375888  0.50021854  0.16727061  1
  Ni  Ni23  1  0.66825661  0.33241874  0.33293393  1
  Ni  Ni24  1  0.66836548  0.66628457  0.99917800  1
  Ni  Ni25  1  0.83561883  0.83399100  0.16704391  1
  Ni  Ni26  1  0.66938697  0.66731111  0.33402757  1
  Ni  Ni27  1  0.16682447  0.16711288  0.50037328  1
  Fe  Fe28  1  0.00039206  1.00025713  0.66714577  1
  Ni  Ni29  1  0.16686489  0.16714875  0.83376485  1
  Ni  Ni30  1  0.16530745  0.50024938  0.50033096  1
  Ni  Ni31  1  0.00039206  0.33461974  0.66687895  1
  Ni  Ni32  1  0.16695554  0.50024712  0.83356763  1
  Ni  Ni33  1  0.16700645  0.83380687  0.50013654  1
  Ni  Ni34  1  0.00039206  0.66630689  0.66687799  1
  Ni  Ni35  1  0.16703775  0.83377453  0.83399839  1
  Ni  Ni36  1  0.50039206  0.16539954  0.50009318  1
  Ni  Ni37  1  0.33460573  0.00040326  0.66687790  1
  Ni  Ni38  1  0.50039206  0.16707154  0.83379376  1
  Cr  Cr39  1  0.50039206  0.50038594  0.50040331  1
  Ni  Ni40  1  0.33229151  0.33214761  0.66797821  1
  Ni  Ni41  1  0.50039206  0.50041872  0.83393039  1
  Ni  Ni42  1  0.50039206  0.83532347  0.50053711  1
  Ni  Ni43  1  0.33213757  0.66861635  0.66797260  1
  Ni  Ni44  1  0.50039206  0.83368283  0.83335747  1
  Ni  Ni45  1  0.83395965  0.16711288  0.50037328  1
  Ni  Ni46  1  0.66617838  0.00040326  0.66687790  1
  Ni  Ni47  1  0.83391923  0.16714875  0.83376485  1
  Ni  Ni48  1  0.83547666  0.50024938  0.50033096  1
  Ni  Ni49  1  0.66849260  0.33214761  0.66797821  1
  Ni  Ni50  1  0.83382857  0.50024712  0.83356763  1
  Ni  Ni51  1  0.83377766  0.83380687  0.50013654  1
  Ni  Ni52  1  0.66864655  0.66861635  0.66797260  1
  Ni  Ni53  1  0.83374637  0.83377453  0.83399839  1
" 