2738,Ni94Fe2Cr2_0,-239.053858543988, 177.464669313578,Ni94Fe2Cr2,"# generated using pymatgen
 data_Cr2FeNi51
_symmetry_space_group_name_H-M   'P 1'
_cell_length_a   7.46144707
_cell_length_b   7.46144707
_cell_length_c   10.55207964
_cell_angle_alpha   90.00000000
_cell_angle_beta   90.00000000
_cell_angle_gamma   90.00000000
_symmetry_Int_Tables_number   1
_chemical_formula_structural   Cr2FeNi51
_chemical_formula_sum   'Cr2 Fe1 Ni51'
_cell_volume   587.46795900
_cell_formula_units_Z   1
loop_
 _symmetry_equiv_pos_site_id
 _symmetry_equiv_pos_as_xyz
  1  'x, y, z'
loop_
 _atom_site_type_symbol
 _atom_site_label
 _atom_site_symmetry_multiplicity
 _atom_site_fract_x
 _atom_site_fract_y
 _atom_site_fract_z
 _atom_site_occupancy
  Ni  Ni0  1  0.99900319  1.00008028  1.00023509  1
  Ni  Ni1  1  0.16563387  0.16831685  0.16798209  1
  Ni  Ni2  1  0.00059601  1.00008086  0.33364838  1
  Ni  Ni3  1  0.00044937  0.33412418  1.00000744  1
  Ni  Ni4  1  0.16705631  0.50031119  0.16688028  1
  Ni  Ni5  1  0.00043760  0.33413340  0.33410785  1
  Ni  Ni6  1  1.00010625  0.66690715  0.00057700  1
  Ni  Ni7  1  0.16456151  0.83249911  0.16797080  1
  Ni  Ni8  1  1.00011791  0.66692135  0.33353667  1
  Cr  Cr9  1  0.33250966  0.00199574  0.99969189  1
  Ni  Ni10  1  0.50159909  0.16968652  0.16799453  1
  Ni  Ni11  1  0.33266198  0.00150358  0.33479292  1
  Ni  Ni12  1  0.33376043  0.33530402  0.00059550  1
  Ni  Ni13  1  0.50017871  0.49888652  0.16687741  1
  Ni  Ni14  1  0.33376158  0.33367666  0.33331400  1
  Ni  Ni15  1  0.33265246  0.66448509  0.99880403  1
  Cr  Cr16  1  0.50143972  0.83234111  0.16809943  1
  Ni  Ni17  1  0.33266169  0.66595333  0.33509367  1
  Ni  Ni18  1  0.66940315  0.00118438  0.99915973  1
  Ni  Ni19  1  0.83390689  0.16717156  0.16687955  1
  Ni  Ni20  1  0.66787837  0.00117865  0.33472678  1
  Ni  Ni21  1  0.66692945  0.33415500  1.00023281  1
  Ni  Ni22  1  0.83388096  0.50007172  0.16710964  1
  Ni  Ni23  1  0.66692110  0.33415153  0.33387452  1
  Ni  Ni24  1  0.66836269  0.66580314  0.99952703  1
  Ni  Ni25  1  0.83532856  0.83389323  0.16687997  1
  Ni  Ni26  1  0.66831705  0.66584340  0.33456607  1
  Ni  Ni27  1  0.16683915  0.16724576  0.50033526  1
  Ni  Ni28  1  0.00090230  0.99967824  0.66725090  1
  Ni  Ni29  1  0.16583914  0.16820064  0.83289693  1
  Ni  Ni30  1  0.16690287  0.50007000  0.50034655  1
  Ni  Ni31  1  0.00072848  0.33443491  0.66700094  1
  Ni  Ni32  1  0.16685279  0.50010172  0.83385369  1
  Ni  Ni33  1  0.16691949  0.83378629  0.50013602  1
  Ni  Ni34  1  0.99940527  0.66703042  0.66701080  1
  Ni  Ni35  1  0.16597180  0.83272771  0.83299808  1
  Ni  Ni36  1  0.50039961  0.16708685  0.50010352  1
  Ni  Ni37  1  0.33369250  0.00112680  0.66681237  1
  Ni  Ni38  1  0.50142480  0.16809554  0.83307767  1
  Ni  Ni39  1  0.50033485  0.50024891  0.50009578  1
  Ni  Ni40  1  0.33387288  0.33284821  0.66725621  1
  Ni  Ni41  1  0.50039413  0.50026304  0.83407846  1
  Ni  Ni42  1  0.50048237  0.83378212  0.50056334  1
  Fe  Fe43  1  0.33364575  0.66678138  0.66693661  1
  Ni  Ni44  1  0.50140543  0.83272230  0.83257565  1
  Ni  Ni45  1  0.83389236  0.16705911  0.50068321  1
  Ni  Ni46  1  0.66653857  0.99986077  0.66723912  1
  Ni  Ni47  1  0.83390214  0.16716316  0.83357270  1
  Ni  Ni48  1  0.83389926  0.50017967  0.50034419  1
  Ni  Ni49  1  0.66651824  0.33442974  0.66700584  1
  Ni  Ni50  1  0.83389090  0.50018472  0.83368630  1
  Ni  Ni51  1  0.83372262  0.83387945  0.50009077  1
  Ni  Ni52  1  0.66802310  0.66685388  0.66701392  1
  Ni  Ni53  1  0.83374975  0.83376523  0.83413621  1
" 