1062,Ni94Fe5Cr0_15,-239.381875558824, 180.367594369458,Ni94Fe5Cr0,"# generated using pymatgen
 data_CrFeNi25
_symmetry_space_group_name_H-M   'P 1'
_cell_length_a   7.45541628
_cell_length_b   7.45541628
_cell_length_c   10.54355081
_cell_angle_alpha   90.00000000
_cell_angle_beta   90.00000000
_cell_angle_gamma   90.00000000
_symmetry_Int_Tables_number   1
_chemical_formula_structural   CrFeNi25
_chemical_formula_sum   'Cr2 Fe2 Ni50'
_cell_volume   586.04462934
_cell_formula_units_Z   2
loop_
 _symmetry_equiv_pos_site_id
 _symmetry_equiv_pos_as_xyz
  1  'x, y, z'
loop_
 _atom_site_type_symbol
 _atom_site_label
 _atom_site_symmetry_multiplicity
 _atom_site_fract_x
 _atom_site_fract_y
 _atom_site_fract_z
 _atom_site_occupancy
  Ni  Ni0  1  0.00122242  1.00056144  0.00119320  1
  Ni  Ni1  1  0.16718105  0.16773010  0.16717515  1
  Ni  Ni2  1  0.00135155  1.00019760  0.33405292  1
  Ni  Ni3  1  0.00268704  0.33435402  0.00131722  1
  Ni  Ni4  1  0.16709400  0.50038463  0.16709386  1
  Ni  Ni5  1  0.00291502  0.33460049  0.33384747  1
  Ni  Ni6  1  0.00095177  0.66742453  0.00092353  1
  Ni  Ni7  1  0.16736377  0.83422594  0.16736269  1
  Ni  Ni8  1  1.00015356  0.66754164  0.33405311  1
  Ni  Ni9  1  0.33402392  1.00074522  0.00084263  1
  Ni  Ni10  1  0.49924734  0.16540933  0.16717534  1
  Ni  Ni11  1  0.33402395  0.00140394  0.33405319  1
  Ni  Ni12  1  0.33246967  0.33408388  0.00100920  1
  Ni  Ni13  1  0.49933361  0.50270852  0.16709634  1
  Ni  Ni14  1  0.33247159  0.33340606  0.33384715  1
  Ni  Ni15  1  0.33402378  0.66751138  0.00136123  1
  Ni  Ni16  1  0.50138646  0.83422520  0.16736361  1
  Fe  Fe17  1  0.33376204  0.66779486  0.33411959  1
  Ni  Ni18  1  0.66709492  0.99900684  0.00139784  1
  Ni  Ni19  1  0.83591258  0.16567732  0.16748307  1
  Ni  Ni20  1  0.66696511  0.99864260  0.33384737  1
  Cr  Cr21  1  0.66704228  0.33428863  0.00122746  1
  Ni  Ni22  1  0.83590918  0.50252298  0.16744443  1
  Cr  Cr23  1  0.66715459  0.33440305  0.33407733  1
  Ni  Ni24  1  0.66736555  0.66897811  0.00112816  1
  Ni  Ni25  1  0.83358950  0.83413824  0.16692575  1
  Ni  Ni26  1  0.66815955  0.66909410  0.33384723  1
  Ni  Ni27  1  0.16718094  0.16747279  0.50078662  1
  Ni  Ni28  1  0.00102141  1.00076564  0.66709269  1
  Ni  Ni29  1  0.16695632  0.16722563  0.83437820  1
  Ni  Ni30  1  0.16709357  0.50064191  0.50086817  1
  Ni  Ni31  1  1.00052568  0.33435387  0.66717493  1
  Ni  Ni32  1  0.16696468  0.50100662  0.83437823  1
  Ni  Ni33  1  0.16736308  0.83422646  0.50086496  1
  Ni  Ni34  1  1.00075109  0.66722062  0.66736208  1
  Ni  Ni35  1  0.16816317  0.83410789  0.83411320  1
  Ni  Ni36  1  0.50014862  0.16631017  0.50194484  1
  Ni  Ni37  1  0.33422573  0.00094713  0.66744457  1
  Ni  Ni38  1  0.50037399  0.16606274  0.83322046  1
  Ni  Ni39  1  0.50023624  0.50180576  0.50202524  1
  Ni  Ni40  1  0.33463363  0.33408404  0.66748331  1
  Ni  Ni41  1  0.50036587  0.50216922  0.83322068  1
  Ni  Ni42  1  0.50112946  0.83422554  0.50059882  1
  Ni  Ni43  1  0.33422567  0.66730936  0.66692609  1
  Ni  Ni44  1  0.50033377  0.83410785  0.83437835  1
  Ni  Ni45  1  0.83501126  0.16657882  0.50163711  1
  Ni  Ni46  1  0.66709322  0.00117212  0.66709280  1
  Ni  Ni47  1  0.83500940  0.16725923  0.83322087  1
  Ni  Ni48  1  0.83500923  0.50162227  0.50167499  1
  Ni  Ni49  1  0.66718114  0.33435387  0.66717503  1
  Ni  Ni50  1  0.83500913  0.50096438  0.83322116  1
  Ni  Ni51  1  0.83384688  0.83413825  0.50103634  1
  Ni  Ni52  1  0.66736354  0.66681386  0.66736234  1
  Fe  Fe53  1  0.83405066  0.83411651  0.83417507  1
" 