6709,Ni94Fe3Cr1_8,-239.053053052512, 177.328911159055,Ni94Fe3Cr1,"# generated using pymatgen
 data_Cr2FeNi51
_symmetry_space_group_name_H-M   'P 1'
_cell_length_a   7.46135063
_cell_length_b   7.46135063
_cell_length_c   10.55194325
_cell_angle_alpha   90.00000000
_cell_angle_beta   90.00000000
_cell_angle_gamma   90.00000000
_symmetry_Int_Tables_number   1
_chemical_formula_structural   Cr2FeNi51
_chemical_formula_sum   'Cr2 Fe1 Ni51'
_cell_volume   587.44517993
_cell_formula_units_Z   1
loop_
 _symmetry_equiv_pos_site_id
 _symmetry_equiv_pos_as_xyz
  1  'x, y, z'
loop_
 _atom_site_type_symbol
 _atom_site_label
 _atom_site_symmetry_multiplicity
 _atom_site_fract_x
 _atom_site_fract_y
 _atom_site_fract_z
 _atom_site_occupancy
  Ni  Ni0  1  0.00151196  0.99781848  0.99952903  1
  Ni  Ni1  1  0.16964239  0.16612092  0.16796525  1
  Ni  Ni2  1  0.00149540  0.99930331  0.33438500  1
  Cr  Cr3  1  0.00138784  0.33472118  0.99911080  1
  Ni  Ni4  1  0.16829643  0.50162976  0.16796300  1
  Ni  Ni5  1  0.00117772  0.33451105  0.33514846  1
  Ni  Ni6  1  1.00008709  0.66892234  1.00023812  1
  Ni  Ni7  1  0.16718131  0.83338937  0.16689205  1
  Ni  Ni8  1  1.00009159  0.66733336  0.33366504  1
  Ni  Ni9  1  0.33384397  1.00025015  0.00058114  1
  Ni  Ni10  1  0.49891936  0.16695722  0.16688798  1
  Ni  Ni11  1  0.33384377  1.00026055  0.33354305  1
  Ni  Ni12  1  0.33558901  0.33342042  1.00023812  1
  Ni  Ni13  1  0.50005604  0.50051465  0.16689205  1
  Ni  Ni14  1  0.33400003  0.33342492  0.33366504  1
  Ni  Ni15  1  0.33413422  0.66746755  1.00001587  1
  Ni  Ni16  1  0.50035443  0.83368776  0.16711593  1
  Ni  Ni17  1  0.33413249  0.66746583  0.33410702  1
  Ni  Ni18  1  0.66581976  0.99915309  0.99884112  1
  Cr  Cr19  1  0.83236929  0.16570263  0.16808507  1
  Ni  Ni20  1  0.66586194  0.99919527  0.33525807  1
  Ni  Ni21  1  0.66448515  0.33484530  0.99952903  1
  Ni  Ni22  1  0.83278758  0.50297572  0.16796525  1
  Ni  Ni23  1  0.66596997  0.33482874  0.33438500  1
  Ni  Ni24  1  0.66691682  0.66717730  0.00058114  1
  Ni  Ni25  1  0.83362389  0.83225270  0.16688798  1
  Ni  Ni26  1  0.66692721  0.66717711  0.33354305  1
  Ni  Ni27  1  0.16708958  0.16703735  0.50011093  1
  Ni  Ni28  1  0.00116774  1.00035419  0.66724802  1
  Ni  Ni29  1  0.16809674  0.16603824  0.83309572  1
  Ni  Ni30  1  0.16724289  0.50057622  0.50068704  1
  Ni  Ni31  1  0.99986800  0.33320133  0.66682678  1
  Ni  Ni32  1  0.16823996  0.50157330  0.83254543  1
  Ni  Ni33  1  0.16707003  0.83352256  0.50034423  1
  Ni  Ni34  1  0.99968404  0.66759035  0.66725483  1
  Ni  Ni35  1  0.16718307  0.83351541  0.83392185  1
  Ni  Ni36  1  0.50028776  0.16730268  0.50013797  1
  Ni  Ni37  1  0.33309180  1.00035998  0.66700813  1
  Ni  Ni38  1  0.50027141  0.16717932  0.83409288  1
  Ni  Ni39  1  0.50018923  0.50040337  0.50034423  1
  Ni  Ni40  1  0.33425701  0.33301737  0.66725483  1
  Ni  Ni41  1  0.50018207  0.50051640  0.83392185  1
  Ni  Ni42  1  0.50009647  0.83342980  0.50038288  1
  Ni  Ni43  1  0.33443455  0.66776789  0.66700966  1
  Ni  Ni44  1  0.50012340  0.83345673  0.83363912  1
  Ni  Ni45  1  0.83377398  0.16710731  0.50058314  1
  Fe  Fe46  1  0.66675370  1.00008703  0.66690633  1
  Ni  Ni47  1  0.83273351  0.16606685  0.83258720  1
  Ni  Ni48  1  0.83370402  0.50042292  0.50011093  1
  Ni  Ni49  1  0.66702085  0.33450108  0.66724802  1
  Ni  Ni50  1  0.83270490  0.50143008  0.83309572  1
  Ni  Ni51  1  0.83396935  0.83362109  0.50013797  1
  Ni  Ni52  1  0.66702665  0.66642513  0.66700813  1
  Ni  Ni53  1  0.83384598  0.83360475  0.83409288  1
" 