6958,Ni94Fe2Cr2_8,-239.006888435548, 177.123709814697,Ni94Fe2Cr2,"# generated using pymatgen
 data_Cr2FeNi51
_symmetry_space_group_name_H-M   'P 1'
_cell_length_a   7.46160487
_cell_length_b   7.46160487
_cell_length_c   10.55230280
_cell_angle_alpha   90.00000000
_cell_angle_beta   90.00000000
_cell_angle_gamma   90.00000000
_symmetry_Int_Tables_number   1
_chemical_formula_structural   Cr2FeNi51
_chemical_formula_sum   'Cr2 Fe1 Ni51'
_cell_volume   587.50523223
_cell_formula_units_Z   1
loop_
 _symmetry_equiv_pos_site_id
 _symmetry_equiv_pos_as_xyz
  1  'x, y, z'
loop_
 _atom_site_type_symbol
 _atom_site_label
 _atom_site_symmetry_multiplicity
 _atom_site_fract_x
 _atom_site_fract_y
 _atom_site_fract_z
 _atom_site_occupancy
  Ni  Ni0  1  0.99863024  1.00028864  1.00002910  1
  Ni  Ni1  1  0.16596584  0.16809692  0.16789000  1
  Ni  Ni2  1  1.00028533  1.00029938  0.33380153  1
  Ni  Ni3  1  1.00010794  0.33395483  1.00003417  1
  Ni  Ni4  1  0.16708370  0.50029185  0.16703170  1
  Ni  Ni5  1  1.00012567  0.33393709  0.33402245  1
  Ni  Ni6  1  1.00026420  0.66685093  0.00061241  1
  Ni  Ni7  1  0.16597170  0.83273996  0.16808250  1
  Ni  Ni8  1  0.00188071  0.66685676  0.33370532  1
  Cr  Cr9  1  0.33332492  0.00073785  0.99971369  1
  Ni  Ni10  1  0.50132281  0.16809107  0.16808250  1
  Ni  Ni11  1  0.33376124  1.00030152  0.33423718  1
  Ni  Ni12  1  0.33377413  0.33543253  1.00002910  1
  Ni  Ni13  1  0.49940019  0.49942895  0.16595982  1
  Ni  Ni14  1  0.33376338  0.33377743  0.33380153  1
  Ni  Ni15  1  0.33361093  0.66555166  0.00060903  1
  Ni  Ni16  1  0.50047769  0.83358508  0.16700368  1
  Ni  Ni17  1  0.33215298  0.66701874  0.33348004  1
  Ni  Ni18  1  0.66851110  0.00045183  0.00060903  1
  Ni  Ni19  1  0.83377091  0.16697907  0.16703170  1
  Ni  Ni20  1  0.66704403  0.00190978  0.33348004  1
  Ni  Ni21  1  0.66721183  0.33379857  0.00061241  1
  Ni  Ni22  1  0.83463176  0.49943101  0.16616282  1
  Ni  Ni23  1  0.66720601  0.33218206  0.33370532  1
  Ni  Ni24  1  0.66721603  0.66684673  0.99946593  1
  Ni  Ni25  1  0.83463382  0.83466258  0.16595982  1
  Cr  Cr26  1  0.66759030  0.66647247  0.33452591  1
  Ni  Ni27  1  0.16701530  0.16704746  0.50069602  1
  Ni  Ni28  1  0.99999356  0.99999740  0.66726886  1
  Ni  Ni29  1  0.16592043  0.16814234  0.83246385  1
  Ni  Ni30  1  0.16718054  0.50042120  0.50012510  1
  Ni  Ni31  1  0.99983001  0.33423276  0.66703975  1
  Ni  Ni32  1  0.16708269  0.50050654  0.83394074  1
  Ni  Ni33  1  0.16700316  0.83362708  0.50012779  1
  Ni  Ni34  1  0.00100441  0.66685779  0.66679611  1
  Ni  Ni35  1  0.16599374  0.83249208  0.83286132  1
  Ni  Ni36  1  0.50043568  0.16705960  0.50012779  1
  Ni  Ni37  1  0.33405987  1.00000290  0.66684056  1
  Ni  Ni38  1  0.50157069  0.16806903  0.83286132  1
  Ni  Ni39  1  0.49908198  0.49924486  0.50125805  1
  Ni  Ni40  1  0.33406537  0.33406921  0.66726886  1
  Ni  Ni41  1  0.50018737  0.50023786  0.83390798  1
  Ni  Ni42  1  0.49930037  0.83476240  0.50123387  1
  Ni  Ni43  1  0.33291978  0.66702503  0.66703625  1
  Ni  Ni44  1  0.50130982  0.83275294  0.83282533  1
  Ni  Ni45  1  0.83364157  0.16688223  0.50012510  1
  Ni  Ni46  1  0.66703773  0.00114299  0.66703625  1
  Ni  Ni47  1  0.83355623  0.16698008  0.83394074  1
  Ni  Ni48  1  0.83485955  0.49920322  0.50128159  1
  Ni  Ni49  1  0.66720498  0.33305835  0.66679611  1
  Ni  Ni50  1  0.83381637  0.50024639  0.83367827  1
  Ni  Ni51  1  0.83481790  0.83498078  0.50125805  1
  Fe  Fe52  1  0.66726129  0.66680148  0.66731236  1
  Ni  Ni53  1  0.83382490  0.83387540  0.83390798  1
" 