5730,Ni94Fe5Cr0_0,-239.400923932876, 180.899256024862,Ni94Fe5Cr0,"# generated using pymatgen
 data_CrFeNi25
_symmetry_space_group_name_H-M   'P 1'
_cell_length_a   7.45651020
_cell_length_b   7.45651020
_cell_length_c   10.54509785
_cell_angle_alpha   90.00000000
_cell_angle_beta   90.00000000
_cell_angle_gamma   90.00000000
_symmetry_Int_Tables_number   1
_chemical_formula_structural   CrFeNi25
_chemical_formula_sum   'Cr2 Fe2 Ni50'
_cell_volume   586.30263538
_cell_formula_units_Z   2
loop_
 _symmetry_equiv_pos_site_id
 _symmetry_equiv_pos_as_xyz
  1  'x, y, z'
loop_
 _atom_site_type_symbol
 _atom_site_label
 _atom_site_symmetry_multiplicity
 _atom_site_fract_x
 _atom_site_fract_y
 _atom_site_fract_z
 _atom_site_occupancy
  Ni  Ni0  1  0.99975105  1.00054587  0.00082898  1
  Ni  Ni1  1  0.16581324  0.16686448  0.16741001  1
  Ni  Ni2  1  0.99897683  1.00054989  0.33415832  1
  Ni  Ni3  1  0.99945511  0.33363606  0.00093571  1
  Ni  Ni4  1  0.16694940  0.50219319  0.16851755  1
  Ni  Ni5  1  0.00079281  0.33396086  0.33326676  1
  Ni  Ni6  1  0.00090437  0.66787308  1.00057932  1
  Ni  Ni7  1  0.16564877  0.83296045  0.16628907  1
  Ni  Ni8  1  1.00064330  0.66760366  0.33384274  1
  Fe  Fe9  1  0.33376392  0.99967702  1.00006830  1
  Ni  Ni10  1  0.50280844  0.16823643  0.16739315  1
  Cr  Cr11  1  0.33384853  0.00086143  0.33356256  1
  Cr  Cr12  1  0.33372923  0.33499325  1.00051085  1
  Ni  Ni13  1  0.50164435  0.50083427  0.16848882  1
  Ni  Ni14  1  0.33403780  0.33556913  0.33435123  1
  Ni  Ni15  1  0.33403721  0.66833498  0.00097451  1
  Fe  Fe16  1  0.50211467  0.83281776  0.16686220  1
  Ni  Ni17  1  0.33391307  0.66557642  0.33393456  1
  Ni  Ni18  1  0.66835152  1.00055722  0.00092418  1
  Ni  Ni19  1  0.83350051  0.16682901  0.16744860  1
  Ni  Ni20  1  0.66931093  1.00070649  0.33418821  1
  Ni  Ni21  1  0.66853184  0.33361013  1.00059389  1
  Ni  Ni22  1  0.83351470  0.50116636  0.16687814  1
  Ni  Ni23  1  0.66730790  0.33392421  0.33361205  1
  Ni  Ni24  1  0.66724993  0.66785692  1.00066960  1
  Ni  Ni25  1  0.83491470  0.83409459  0.16769195  1
  Ni  Ni26  1  0.66761792  0.66745891  0.33386341  1
  Ni  Ni27  1  0.16663588  0.16807759  0.50137387  1
  Ni  Ni28  1  1.00046957  1.00066998  0.66707704  1
  Ni  Ni29  1  0.16636051  0.16619788  0.83328709  1
  Ni  Ni30  1  0.16755280  0.50096820  0.50022577  1
  Ni  Ni31  1  0.00080481  0.33395568  0.66792304  1
  Ni  Ni32  1  0.16667753  0.50195125  0.83330933  1
  Ni  Ni33  1  0.16654236  0.83307529  0.50167414  1
  Ni  Ni34  1  1.00062763  0.66750511  0.66767439  1
  Ni  Ni35  1  0.16723875  0.83390250  0.83410307  1
  Ni  Ni36  1  0.50168091  0.16834064  0.50166631  1
  Ni  Ni37  1  0.33417491  1.00058049  0.66847592  1
  Ni  Ni38  1  0.50193708  0.16652738  0.83297332  1
  Ni  Ni39  1  0.50077932  0.50064048  0.50057874  1
  Ni  Ni40  1  0.33391145  0.33409000  0.66689248  1
  Ni  Ni41  1  0.50162979  0.50159797  0.83296603  1
  Ni  Ni42  1  0.50149965  0.83308630  0.50096272  1
  Ni  Ni43  1  0.33417653  0.66740913  0.66731340  1
  Ni  Ni44  1  0.50073526  0.83392700  0.83483409  1
  Ni  Ni45  1  0.83379112  0.16733765  0.50022684  1
  Ni  Ni46  1  0.66747118  1.00040651  0.66708712  1
  Ni  Ni47  1  0.83379149  0.16704568  0.83444291  1
  Ni  Ni48  1  0.83379011  0.50079669  0.50046529  1
  Ni  Ni49  1  0.66740379  0.33395406  0.66791738  1
  Ni  Ni50  1  0.83378691  0.50089424  0.83478676  1
  Ni  Ni51  1  0.83411620  0.83398246  0.50057848  1
  Ni  Ni52  1  0.66731197  0.66776920  0.66767823  1
  Ni  Ni53  1  0.83412634  0.83417453  0.83381753  1
" 