517,Ni94Fe6_11,-226.288868728949, 139.945371639245,Ni94Fe6,"# generated using pymatgen
 data_Fe25Ni2
_symmetry_space_group_name_H-M   'P 1'
_cell_length_a   7.41080502
_cell_length_b   7.41080502
_cell_length_c   10.48046097
_cell_angle_alpha   90.00000000
_cell_angle_beta   90.00000000
_cell_angle_gamma   90.00000000
_symmetry_Int_Tables_number   1
_chemical_formula_structural   Fe25Ni2
_chemical_formula_sum   'Fe50 Ni4'
_cell_volume   575.58724155
_cell_formula_units_Z   2
loop_
 _symmetry_equiv_pos_site_id
 _symmetry_equiv_pos_as_xyz
  1  'x, y, z'
loop_
 _atom_site_type_symbol
 _atom_site_label
 _atom_site_symmetry_multiplicity
 _atom_site_fract_x
 _atom_site_fract_y
 _atom_site_fract_z
 _atom_site_occupancy
  Fe  Fe0  1  1.00378797  1.00379433  1.00379463  1
  Fe  Fe1  1  0.17056295  0.17046303  0.17036863  1
  Fe  Fe2  1  1.00276745  1.00342274  0.33746260  1
  Fe  Fe3  1  1.00378794  0.33712722  0.00379463  1
  Fe  Fe4  1  0.17035967  0.50369238  0.17026187  1
  Fe  Fe5  1  1.00276383  0.33739656  0.33735967  1
  Fe  Fe6  1  0.00399568  0.67046236  0.00379463  1
  Fe  Fe7  1  0.17046130  0.83722846  0.17036328  1
  Fe  Fe8  1  1.00333589  0.67056042  0.33682694  1
  Fe  Fe9  1  0.33713036  1.00379004  1.00379463  1
  Fe  Fe10  1  0.50359429  0.17036146  0.17016062  1
  Fe  Fe11  1  0.33772797  1.00299636  0.33692811  1
  Fe  Fe12  1  0.33713450  0.33713561  1.00379463  1
  Fe  Fe13  1  0.50412743  0.50412419  0.17149052  1
  Fe  Fe14  1  0.33815812  0.33825745  0.33735985  1
  Fe  Fe15  1  0.33693105  0.67045822  0.00379463  1
  Fe  Fe16  1  0.50412827  0.83689780  0.17069054  1
  Fe  Fe17  1  0.33801721  0.67013259  0.33736260  1
  Fe  Fe18  1  0.67046557  0.00399778  0.00379463  1
  Fe  Fe19  1  0.83722687  0.17046286  0.17106276  1
  Fe  Fe20  1  0.67089132  1.00356621  0.33725780  1
  Fe  Fe21  1  0.67046143  0.33692789  0.00379463  1
  Fe  Fe22  1  0.83689645  0.50422581  0.17058877  1
  Fe  Fe23  1  0.67045946  0.33768981  0.33769781  1
  Fe  Fe24  1  0.67045716  0.67045817  0.00379463  1
  Fe  Fe25  1  0.83679519  0.83669532  0.17068964  1
  Ni  Ni26  1  0.67043768  0.67032466  0.33671188  1
  Fe  Fe27  1  0.17050614  0.17116001  0.50379463  1
  Fe  Fe28  1  1.00276745  1.00342274  0.67012667  1
  Fe  Fe29  1  0.17056295  0.17046303  0.83722064  1
  Fe  Fe30  1  0.17041827  0.50289803  0.50379463  1
  Fe  Fe31  1  1.00276383  0.33739656  0.67022959  1
  Fe  Fe32  1  0.17035967  0.50369238  0.83732739  1
  Fe  Fe33  1  0.17046177  0.83732629  0.50379463  1
  Fe  Fe34  1  1.00333589  0.67056042  0.67076233  1
  Fe  Fe35  1  0.17046130  0.83722846  0.83722599  1
  Fe  Fe36  1  0.50425899  0.17112861  0.50379463  1
  Fe  Fe37  1  0.33772797  1.00299636  0.67066116  1
  Fe  Fe38  1  0.50359429  0.17036146  0.83742865  1
  Ni  Ni39  1  0.50341044  0.50473882  0.50379463  1
  Fe  Fe40  1  0.33815812  0.33825745  0.67022942  1
  Fe  Fe41  1  0.50412743  0.50412419  0.83609875  1
  Fe  Fe42  1  0.50516273  0.83650019  0.50379463  1
  Fe  Fe43  1  0.33801721  0.67013259  0.67022666  1
  Fe  Fe44  1  0.50412827  0.83689780  0.83689873  1
  Ni  Ni45  1  0.83756562  0.16979640  0.50379463  1
  Fe  Fe46  1  0.67089132  1.00356621  0.67033147  1
  Fe  Fe47  1  0.83722687  0.17046286  0.83652651  1
  Fe  Fe48  1  0.83578933  0.50379855  0.50379463  1
  Fe  Fe49  1  0.67045946  0.33768981  0.66989146  1
  Fe  Fe50  1  0.83689645  0.50422581  0.83700050  1
  Fe  Fe51  1  0.83576259  0.83641557  0.50379463  1
  Ni  Ni52  1  0.67043768  0.67032466  0.67087739  1
  Fe  Fe53  1  0.83679519  0.83669532  0.83689962  1
" 