1159,Ni94Fe2Cr2_18,-239.025303493911, 177.487877811882,Ni94Fe2Cr2,"# generated using pymatgen
 data_Cr2FeNi51
_symmetry_space_group_name_H-M   'P 1'
_cell_length_a   7.46160319
_cell_length_b   7.46160319
_cell_length_c   10.55230042
_cell_angle_alpha   90.00000000
_cell_angle_beta   90.00000000
_cell_angle_gamma   90.00000000
_symmetry_Int_Tables_number   1
_chemical_formula_structural   Cr2FeNi51
_chemical_formula_sum   'Cr2 Fe1 Ni51'
_cell_volume   587.50483572
_cell_formula_units_Z   1
loop_
 _symmetry_equiv_pos_site_id
 _symmetry_equiv_pos_as_xyz
  1  'x, y, z'
loop_
 _atom_site_type_symbol
 _atom_site_label
 _atom_site_symmetry_multiplicity
 _atom_site_fract_x
 _atom_site_fract_y
 _atom_site_fract_z
 _atom_site_occupancy
  Ni  Ni0  1  1.00017778  0.00066809  0.00057153  1
  Ni  Ni1  1  0.16733570  0.16671724  0.16733338  1
  Ni  Ni2  1  0.00176756  0.00052840  0.33366682  1
  Ni  Ni3  1  1.00035385  0.33368718  1.00033515  1
  Ni  Ni4  1  0.16624054  0.49957388  0.16817191  1
  Ni  Ni5  1  0.00037755  0.33371089  0.33398026  1
  Ni  Ni6  1  0.99888305  0.66674294  1.00033540  1
  Ni  Ni7  1  0.16591233  0.83477570  0.16803041  1
  Ni  Ni8  1  0.00050191  0.66684701  0.33342917  1
  Ni  Ni9  1  0.33383176  0.00174187  0.00056404  1
  Ni  Ni10  1  0.49927714  0.16810172  0.16598151  1
  Ni  Ni11  1  0.33209534  0.00047179  0.33344360  1
  Ni  Ni12  1  0.33340961  0.33221639  1.00033540  1
  Ni  Ni13  1  0.50144237  0.49924566  0.16803041  1
  Ni  Ni14  1  0.33351368  0.33383524  0.33342917  1
  Cr  Cr15  1  0.33329819  0.66663152  0.99996681  1
  Ni  Ni16  1  0.50036252  0.83369585  0.16770873  1
  Ni  Ni17  1  0.33343105  0.66676438  0.33389945  1
  Ni  Ni18  1  0.66708065  0.00041398  1.00013443  1
  Ni  Ni19  1  0.83451452  0.16784786  0.16646579  1
  Cr  Cr20  1  0.66775741  0.00109074  0.33396641  1
  Ni  Ni21  1  0.66733476  0.33351112  0.00057153  1
  Ni  Ni22  1  0.83338391  0.50066903  0.16733338  1
  Ni  Ni23  1  0.66719506  0.33510089  0.33366682  1
  Ni  Ni24  1  0.66840853  0.66716510  0.00056404  1
  Ni  Ni25  1  0.83476838  0.83261047  0.16598151  1
  Ni  Ni26  1  0.66713845  0.66542867  0.33344360  1
  Ni  Ni27  1  0.16771731  0.16642601  0.50019491  1
  Ni  Ni28  1  1.00017028  0.00054211  0.66687511  1
  Ni  Ni29  1  0.16734771  0.16663336  0.83356870  1
  Ni  Ni30  1  0.16753679  0.50087012  0.50042908  1
  Ni  Ni31  1  0.00036648  0.33369981  0.66677573  1
  Ni  Ni32  1  0.16618426  0.49951759  0.83243081  1
  Ni  Ni33  1  0.16620406  0.83378134  0.50019599  1
  Ni  Ni34  1  0.00049241  0.66685297  0.66734663  1
  Ni  Ni35  1  0.16586580  0.83492093  0.83283617  1
  Ni  Ni36  1  0.49914696  0.16894772  0.50129335  1
  Ni  Ni37  1  0.33362048  0.00043747  0.66705928  1
  Ni  Ni38  1  0.50028010  0.16712784  0.83391438  1
  Ni  Ni39  1  0.50044801  0.49953740  0.50019599  1
  Ni  Ni40  1  0.33351964  0.33382574  0.66734663  1
  Ni  Ni41  1  0.50158760  0.49919914  0.83283617  1
  Fe  Fe42  1  0.49947951  0.83281284  0.50120329  1
  Ni  Ni43  1  0.33346339  0.66679672  0.66685703  1
  Ni  Ni44  1  0.50138585  0.83471918  0.83216913  1
  Ni  Ni45  1  0.83423072  0.16756405  0.50132799  1
  Ni  Ni46  1  0.66727780  0.00061113  0.66726063  1
  Ni  Ni47  1  0.83346751  0.16680084  0.83333737  1
  Ni  Ni48  1  0.83309268  0.50105065  0.50019491  1
  Ni  Ni49  1  0.66720878  0.33350361  0.66687511  1
  Ni  Ni50  1  0.83330003  0.50068105  0.83356870  1
  Ni  Ni51  1  0.83561439  0.83248029  0.50129335  1
  Ni  Ni52  1  0.66710414  0.66695381  0.66705928  1
  Ni  Ni53  1  0.83379451  0.83361343  0.83391438  1
" 