7703,Ni94Fe5Cr0_3,-239.334983160179, 180.834987941922,Ni94Fe5Cr0,"# generated using pymatgen
 data_CrFeNi25
_symmetry_space_group_name_H-M   'P 1'
_cell_length_a   7.45667840
_cell_length_b   7.45667840
_cell_length_c   10.54533573
_cell_angle_alpha   90.00000000
_cell_angle_beta   90.00000000
_cell_angle_gamma   90.00000000
_symmetry_Int_Tables_number   1
_chemical_formula_structural   CrFeNi25
_chemical_formula_sum   'Cr2 Fe2 Ni50'
_cell_volume   586.34231436
_cell_formula_units_Z   2
loop_
 _symmetry_equiv_pos_site_id
 _symmetry_equiv_pos_as_xyz
  1  'x, y, z'
loop_
 _atom_site_type_symbol
 _atom_site_label
 _atom_site_symmetry_multiplicity
 _atom_site_fract_x
 _atom_site_fract_y
 _atom_site_fract_z
 _atom_site_occupancy
  Ni  Ni0  1  0.00138333  0.00161285  1.00021180  1
  Ni  Ni1  1  0.16751800  0.16747137  0.16722894  1
  Ni  Ni2  1  1.00025417  0.00113643  0.33402863  1
  Ni  Ni3  1  1.00058770  0.33413011  0.00100933  1
  Ni  Ni4  1  0.16727766  0.50013741  0.16735815  1
  Ni  Ni5  1  1.00028842  0.33482615  0.33299346  1
  Ni  Ni6  1  0.00130857  0.66634397  1.00013610  1
  Ni  Ni7  1  0.16885070  0.83447730  0.16739092  1
  Ni  Ni8  1  0.00129741  0.66612238  0.33506476  1
  Ni  Ni9  1  0.33424360  1.00065500  0.00117348  1
  Ni  Ni10  1  0.50020483  0.16739173  0.16752243  1
  Ni  Ni11  1  0.33526821  1.00009318  0.33299250  1
  Ni  Ni12  1  0.33400327  0.33404955  0.00069725  1
  Ni  Ni13  1  0.50062621  0.50039926  0.16709971  1
  Ni  Ni14  1  0.33419490  0.33483301  0.33322922  1
  Ni  Ni15  1  0.33424052  0.66738150  0.00114111  1
  Ni  Ni16  1  0.49913309  0.83429520  0.16717566  1
  Ni  Ni17  1  0.33423103  0.66715956  0.33402863  1
  Ni  Ni18  1  0.66645835  0.00137525  0.99997293  1
  Ni  Ni19  1  0.83436224  0.16896305  0.16705996  1
  Ni  Ni20  1  0.66656444  0.00110217  0.33506380  1
  Ni  Ni21  1  0.66749457  0.33412779  0.00147333  1
  Ni  Ni22  1  0.83418134  0.49906275  0.16734030  1
  Fe  Fe23  1  0.66741703  0.33397357  0.33402863  1
  Ni  Ni24  1  0.66653681  0.66658376  0.99989674  1
  Cr  Cr25  1  0.83406210  0.83364995  0.16719259  1
  Ni  Ni26  1  0.66655758  0.66719569  0.33482804  1
  Cr  Cr27  1  0.16774064  0.16732849  0.50086467  1
  Ni  Ni28  1  0.99977774  1.00000726  0.66784546  1
  Ni  Ni29  1  0.16794452  0.16730809  0.83421458  1
  Ni  Ni30  1  0.16709540  0.50225751  0.50088160  1
  Ni  Ni31  1  1.00001534  0.33493224  0.66808433  1
  Ni  Ni32  1  0.16687343  0.50007883  0.83384559  1
  Ni  Ni33  1  0.16691330  0.83253990  0.50066634  1
  Ni  Ni34  1  0.00073559  0.66714700  0.66688378  1
  Ni  Ni35  1  0.16669190  0.83469869  0.83402863  1
  Ni  Ni36  1  0.50232784  0.16720925  0.50071696  1
  Ni  Ni37  1  0.33504662  1.00008202  0.66792116  1
  Ni  Ni38  1  0.49988081  0.16731437  0.83384560  1
  Ni  Ni39  1  0.50099133  0.50076438  0.50095755  1
  Ni  Ni40  1  0.33480684  0.33485378  0.66816052  1
  Ni  Ni41  1  0.50113654  0.50025405  0.83402863  1
  Ni  Ni42  1  0.50125318  0.83411294  0.50069911  1
  Ni  Ni43  1  0.33400910  0.66715007  0.66691615  1
  Ni  Ni44  1  0.50131176  0.83451716  0.83421167  1
  Ni  Ni45  1  0.83242754  0.16702835  0.50099730  1
  Ni  Ni46  1  0.66726048  0.00080289  0.66704793  1
  Fe  Fe47  1  0.83407936  0.16731123  0.83402863  1
  Ni  Ni48  1  0.83399886  0.50118576  0.50053483  1
  Ni  Ni49  1  0.66726280  0.33389603  0.66658393  1
  Ni  Ni50  1  0.83407622  0.50150978  0.83421166  1
  Ni  Ni51  1  0.83391922  0.83387259  0.50082832  1
  Ni  Ni52  1  0.66734104  0.66738732  0.66736001  1
  Ni  Ni53  1  0.83408250  0.83344608  0.83384268  1
" 