6477,Ni94Fe3Cr1_6,-239.047176856177, 177.955532150358,Ni94Fe3Cr1,"# generated using pymatgen
 data_Cr2FeNi51
_symmetry_space_group_name_H-M   'P 1'
_cell_length_a   7.46118028
_cell_length_b   7.46118028
_cell_length_c   10.55170234
_cell_angle_alpha   90.00000000
_cell_angle_beta   90.00000000
_cell_angle_gamma   90.00000000
_symmetry_Int_Tables_number   1
_chemical_formula_structural   Cr2FeNi51
_chemical_formula_sum   'Cr2 Fe1 Ni51'
_cell_volume   587.40494605
_cell_formula_units_Z   1
loop_
 _symmetry_equiv_pos_site_id
 _symmetry_equiv_pos_as_xyz
  1  'x, y, z'
loop_
 _atom_site_type_symbol
 _atom_site_label
 _atom_site_symmetry_multiplicity
 _atom_site_fract_x
 _atom_site_fract_y
 _atom_site_fract_z
 _atom_site_occupancy
  Ni  Ni0  1  0.00227873  1.00014646  0.00090990  1
  Ni  Ni1  1  0.16601983  0.16791752  0.16593441  1
  Ni  Ni2  1  0.99933522  0.99983246  0.33351272  1
  Ni  Ni3  1  0.00066789  0.33430683  0.00066621  1
  Ni  Ni4  1  0.16707034  0.50031224  0.16727531  1
  Ni  Ni5  1  0.00088111  0.33456318  0.33374484  1
  Ni  Ni6  1  1.00035372  0.66673584  1.00032960  1
  Ni  Ni7  1  0.16590683  0.83288687  0.16593153  1
  Ni  Ni8  1  0.99956105  0.66672047  0.33375022  1
  Ni  Ni9  1  0.33217127  0.00044373  1.00014288  1
  Ni  Ni10  1  0.50041648  0.16896967  0.16697715  1
  Cr  Cr11  1  0.33370272  0.00126150  0.33351985  1
  Ni  Ni12  1  0.33355604  0.33379708  0.00054280  1
  Ni  Ni13  1  0.50045612  0.50031498  0.16704719  1
  Ni  Ni14  1  0.33357690  0.33475447  0.33374703  1
  Ni  Ni15  1  0.33355568  0.66690246  0.00123908  1
  Ni  Ni16  1  0.50047397  0.83175974  0.16702910  1
  Fe  Fe17  1  0.33353469  0.66555407  0.33384245  1
  Cr  Cr18  1  0.66690007  1.00021260  0.00082716  1
  Ni  Ni19  1  0.83476797  0.16800860  0.16837198  1
  Ni  Ni20  1  0.66807715  0.99983516  0.33394793  1
  Ni  Ni21  1  0.66695859  0.33572442  0.00067228  1
  Ni  Ni22  1  0.83366014  0.50037734  0.16675353  1
  Ni  Ni23  1  0.66671450  0.33439767  0.33352392  1
  Ni  Ni24  1  0.66727343  0.66534866  1.00033187  1
  Ni  Ni25  1  0.83473146  0.83280696  0.16804056  1
  Ni  Ni26  1  0.66800263  0.66689508  0.33351935  1
  Ni  Ni27  1  0.16602660  0.16784783  0.50135551  1
  Ni  Ni28  1  0.00064395  1.00015208  0.66675908  1
  Ni  Ni29  1  0.16693459  0.16700104  0.83389785  1
  Ni  Ni30  1  0.16705104  0.50029536  0.50025474  1
  Ni  Ni31  1  0.00063293  0.33426715  0.66677036  1
  Ni  Ni32  1  0.16733494  0.50052170  0.83366691  1
  Ni  Ni33  1  0.16590823  0.83295479  0.50136477  1
  Ni  Ni34  1  1.00033019  0.66676593  0.66709902  1
  Ni  Ni35  1  0.16717802  0.83365769  0.83389846  1
  Ni  Ni36  1  0.50140591  0.16800592  0.50135022  1
  Ni  Ni37  1  0.33374164  0.00043701  0.66751292  1
  Ni  Ni38  1  0.49949064  0.16811048  0.83282099  1
  Ni  Ni39  1  0.50054004  0.50030365  0.50024564  1
  Ni  Ni40  1  0.33357787  0.33377846  0.66688914  1
  Ni  Ni41  1  0.50019272  0.50052300  0.83389848  1
  Ni  Ni42  1  0.50151536  0.83278926  0.50135100  1
  Ni  Ni43  1  0.33358013  0.66692574  0.66619626  1
  Ni  Ni44  1  0.49925493  0.83255723  0.83282874  1
  Ni  Ni45  1  0.83373757  0.16700353  0.49997646  1
  Ni  Ni46  1  0.66679869  1.00015059  0.66632872  1
  Ni  Ni47  1  0.83477557  0.16796182  0.83280562  1
  Ni  Ni48  1  0.83358099  0.50037498  0.50052879  1
  Ni  Ni49  1  0.66696630  0.33411501  0.66698451  1
  Ni  Ni50  1  0.83365340  0.50027919  0.83389678  1
  Ni  Ni51  1  0.83373915  0.83379039  0.50028568  1
  Ni  Ni52  1  0.66726889  0.66692642  0.66731948  1
  Ni  Ni53  1  0.83476746  0.83294997  0.83281533  1
" 