4250,Ni94Fe5Cr0_1,-239.369340527946, 181.115043848476,Ni94Fe5Cr0,"# generated using pymatgen
 data_CrFeNi25
_symmetry_space_group_name_H-M   'P 1'
_cell_length_a   7.45560804
_cell_length_b   7.45560804
_cell_length_c   10.54382200
_cell_angle_alpha   90.00000000
_cell_angle_beta   90.00000000
_cell_angle_gamma   90.00000000
_symmetry_Int_Tables_number   1
_chemical_formula_structural   CrFeNi25
_chemical_formula_sum   'Cr2 Fe2 Ni50'
_cell_volume   586.08985137
_cell_formula_units_Z   2
loop_
 _symmetry_equiv_pos_site_id
 _symmetry_equiv_pos_as_xyz
  1  'x, y, z'
loop_
 _atom_site_type_symbol
 _atom_site_label
 _atom_site_symmetry_multiplicity
 _atom_site_fract_x
 _atom_site_fract_y
 _atom_site_fract_z
 _atom_site_occupancy
  Ni  Ni0  1  0.00094891  0.99990001  0.00148675  1
  Ni  Ni1  1  0.16792622  0.16838616  0.16645064  1
  Cr  Cr2  1  1.00054703  1.00054253  0.33410004  1
  Ni  Ni3  1  0.00206673  0.33424651  0.00138479  1
  Ni  Ni4  1  0.16711326  0.50071158  0.16765136  1
  Ni  Ni5  1  0.00099249  0.33564885  0.33433634  1
  Ni  Ni6  1  0.00098366  0.66815790  0.00079248  1
  Ni  Ni7  1  0.16812661  0.83320118  0.16664440  1
  Ni  Ni8  1  0.00098561  0.66590947  0.33384659  1
  Fe  Fe9  1  0.33405343  0.00081362  0.00076735  1
  Ni  Ni10  1  0.50111287  0.16729374  0.16753561  1
  Ni  Ni11  1  0.33564876  0.00099973  0.33386421  1
  Ni  Ni12  1  0.33407878  0.33447016  1.00060061  1
  Ni  Ni13  1  0.50083871  0.50072352  0.16740399  1
  Ni  Ni14  1  0.33426672  0.33425870  0.33409950  1
  Ni  Ni15  1  0.33382562  0.66658576  1.00059535  1
  Ni  Ni16  1  0.50092587  0.83428251  0.16773055  1
  Ni  Ni17  1  0.33401222  0.66704366  0.33435285  1
  Ni  Ni18  1  0.66772743  1.00015051  0.00162301  1
  Ni  Ni19  1  0.83326614  0.16830672  0.16676242  1
  Ni  Ni20  1  0.66590863  0.00099288  0.33435337  1
  Ni  Ni21  1  0.66615722  0.33443613  0.00168098  1
  Ni  Ni22  1  0.83434953  0.50052127  0.16741843  1
  Ni  Ni23  1  0.66704352  0.33401236  0.33384795  1
  Ni  Ni24  1  0.66749161  0.66771607  1.00034810  1
  Ni  Ni25  1  0.83325272  0.83347278  0.16637516  1
  Ni  Ni26  1  0.66730384  0.66729645  0.33410068  1
  Ni  Ni27  1  0.16814421  0.16816799  0.50175364  1
  Ni  Ni28  1  0.00158264  0.99926548  0.66671088  1
  Ni  Ni29  1  0.16920985  0.16743301  0.83410131  1
  Ni  Ni30  1  0.16724146  0.50082165  0.50047623  1
  Fe  Fe31  1  0.00167435  0.33496361  0.66647288  1
  Ni  Ni32  1  0.16764452  0.50100768  0.83417342  1
  Ni  Ni33  1  0.16825817  0.83331669  0.50163189  1
  Ni  Ni34  1  1.00075115  0.66856633  0.66766072  1
  Ni  Ni35  1  0.16749007  0.83386095  0.83402663  1
  Ni  Ni36  1  0.50100062  0.16716237  0.50074194  1
  Ni  Ni37  1  0.33340388  0.00146643  0.66789687  1
  Ni  Ni38  1  0.49909762  0.16750797  0.83402688  1
  Ni  Ni39  1  0.50082286  0.50074092  0.50079646  1
  Ni  Ni40  1  0.33471023  0.33383760  0.66759981  1
  Ni  Ni41  1  0.50065439  0.50092689  0.83410015  1
  Ni  Ni42  1  0.50080932  0.83439863  0.50059038  1
  Ni  Ni43  1  0.33359383  0.66699816  0.66735320  1
  Ni  Ni44  1  0.50073570  0.83386393  0.83398329  1
  Ni  Ni45  1  0.83315615  0.16817990  0.50136704  1
  Ni  Ni46  1  0.66731568  1.00038315  0.66632504  1
  Cr  Cr47  1  0.83392099  0.16747411  0.83405329  1
  Ni  Ni48  1  0.83423754  0.50063311  0.50066726  1
  Ni  Ni49  1  0.66574626  0.33466992  0.66676878  1
  Ni  Ni50  1  0.83400229  0.50265018  0.83421693  1
  Ni  Ni51  1  0.83323375  0.83349284  0.50182591  1
  Ni  Ni52  1  0.66795767  0.66724963  0.66785298  1
  Ni  Ni53  1  0.83407833  0.83230780  0.83410032  1
" 