3340,Ni94Fe3Cr1_7,-239.046972956059, 177.826091935524,Ni94Fe3Cr1,"# generated using pymatgen
 data_Cr2FeNi51
_symmetry_space_group_name_H-M   'P 1'
_cell_length_a   7.46109038
_cell_length_b   7.46109038
_cell_length_c   10.55157521
_cell_angle_alpha   90.00000000
_cell_angle_beta   90.00000000
_cell_angle_gamma   90.00000000
_symmetry_Int_Tables_number   1
_chemical_formula_structural   Cr2FeNi51
_chemical_formula_sum   'Cr2 Fe1 Ni51'
_cell_volume   587.38371339
_cell_formula_units_Z   1
loop_
 _symmetry_equiv_pos_site_id
 _symmetry_equiv_pos_as_xyz
  1  'x, y, z'
loop_
 _atom_site_type_symbol
 _atom_site_label
 _atom_site_symmetry_multiplicity
 _atom_site_fract_x
 _atom_site_fract_y
 _atom_site_fract_z
 _atom_site_occupancy
  Ni  Ni0  1  0.99960772  0.99957918  0.00122839  1
  Ni  Ni1  1  0.16711421  0.16719224  0.16745708  1
  Ni  Ni2  1  0.00062858  0.00220834  0.33402426  1
  Ni  Ni3  1  0.99936238  0.33478429  0.00150554  1
  Ni  Ni4  1  0.16819882  0.49923120  0.16596492  1
  Ni  Ni5  1  1.00031091  0.33219930  0.33368278  1
  Ni  Ni6  1  0.00071805  0.66682689  0.99971352  1
  Ni  Ni7  1  0.16796830  0.83478665  0.16595360  1
  Cr  Cr8  1  0.00070742  0.66687711  0.33396591  1
  Ni  Ni9  1  0.33490154  0.99950864  0.00126555  1
  Ni  Ni10  1  0.50025384  0.16719141  0.16680469  1
  Ni  Ni11  1  0.33391821  0.00048505  0.33368323  1
  Ni  Ni12  1  0.33488885  0.33459359  0.00059691  1
  Ni  Ni13  1  0.50041380  0.50049348  0.16725562  1
  Ni  Ni14  1  0.33392040  0.33357717  0.33434903  1
  Ni  Ni15  1  0.33363818  0.66712896  0.00046564  1
  Ni  Ni16  1  0.50065269  0.83351247  0.16725421  1
  Ni  Ni17  1  0.33513840  0.66715278  0.33366931  1
  Ni  Ni18  1  0.66668964  0.00085691  0.99992467  1
  Ni  Ni19  1  0.83382901  0.16695438  0.16702933  1
  Ni  Ni20  1  0.66664753  0.00096201  0.33402378  1
  Ni  Ni21  1  0.66699037  0.33351225  1.00024746  1
  Ni  Ni22  1  0.83256359  0.49964662  0.16620012  1
  Ni  Ni23  1  0.66697956  0.33341841  0.33366979  1
  Ni  Ni24  1  0.66684063  0.66682746  1.00036667  1
  Ni  Ni25  1  0.83255429  0.83460602  0.16619249  1
  Ni  Ni26  1  0.66523969  0.66681791  0.33402925  1
  Ni  Ni27  1  0.16690824  0.16698499  0.49997340  1
  Ni  Ni28  1  0.99994237  0.99991082  0.66596971  1
  Cr  Cr29  1  0.16676317  0.16688129  0.83387181  1
  Ni  Ni30  1  0.16800709  0.49942699  0.50147903  1
  Ni  Ni31  1  0.99858810  0.33477138  0.66596799  1
  Ni  Ni32  1  0.16697956  0.50203481  0.83378529  1
  Ni  Ni33  1  0.16803708  0.83475951  0.50140534  1
  Ni  Ni34  1  0.00099562  0.66654011  0.66745378  1
  Ni  Ni35  1  0.16708137  0.83225769  0.83378918  1
  Ni  Ni36  1  0.50045833  0.16699094  0.50063142  1
  Ni  Ni37  1  0.33489077  0.99870333  0.66621469  1
  Ni  Ni38  1  0.50206408  0.16694875  0.83380123  1
  Ni  Ni39  1  0.50061054  0.50068908  0.50019054  1
  Fe  Fe40  1  0.33487027  0.33445240  0.66635942  1
  Ni  Ni41  1  0.50066398  0.50080708  0.83377379  1
  Ni  Ni42  1  0.50055782  0.83355313  0.50013558  1
  Ni  Ni43  1  0.33363876  0.66782683  0.66703043  1
  Ni  Ni44  1  0.50057800  0.83345349  0.83379613  1
  Ni  Ni45  1  0.83383703  0.16705197  0.50035946  1
  Ni  Ni46  1  0.66639815  0.00113915  0.66724889  1
  Ni  Ni47  1  0.83238240  0.16706658  0.83378925  1
  Ni  Ni48  1  0.83264090  0.49958036  0.50115951  1
  Ni  Ni49  1  0.66771917  0.33351096  0.66725538  1
  Ni  Ni50  1  0.83357910  0.50056411  0.83379604  1
  Ni  Ni51  1  0.83257071  0.83459043  0.50149446  1
  Ni  Ni52  1  0.66657247  0.66655608  0.66680539  1
  Ni  Ni53  1  0.83354617  0.83357484  0.83349699  1
" 