1877,Ni94Fe6_4,-226.453096123102, 142.663480302078,Ni94Fe6,"# generated using pymatgen
 data_Fe25Ni2
_symmetry_space_group_name_H-M   'P 1'
_cell_length_a   7.41206697
_cell_length_b   7.41206697
_cell_length_c   10.48224563
_cell_angle_alpha   90.00000000
_cell_angle_beta   90.00000000
_cell_angle_gamma   90.00000000
_symmetry_Int_Tables_number   1
_chemical_formula_structural   Fe25Ni2
_chemical_formula_sum   'Fe50 Ni4'
_cell_volume   575.88133259
_cell_formula_units_Z   2
loop_
 _symmetry_equiv_pos_site_id
 _symmetry_equiv_pos_as_xyz
  1  'x, y, z'
loop_
 _atom_site_type_symbol
 _atom_site_label
 _atom_site_symmetry_multiplicity
 _atom_site_fract_x
 _atom_site_fract_y
 _atom_site_fract_z
 _atom_site_occupancy
  Fe  Fe0  1  0.00394963  0.00404023  1.00331344  1
  Fe  Fe1  1  0.17067632  0.17118212  0.16997975  1
  Fe  Fe2  1  1.00352863  1.00370453  0.33703990  1
  Fe  Fe3  1  0.00470263  0.33734811  0.00409593  1
  Ni  Ni4  1  0.17082013  0.50326425  0.16998151  1
  Fe  Fe5  1  0.00424441  0.33766356  0.33713269  1
  Fe  Fe6  1  0.00434068  0.66974371  1.00369645  1
  Fe  Fe7  1  0.17037555  0.83652614  0.17046575  1
  Fe  Fe8  1  0.00433148  0.66975291  0.33704119  1
  Fe  Fe9  1  0.33713275  0.00439540  0.00370889  1
  Fe  Fe10  1  0.50276938  0.17131501  0.17007348  1
  Fe  Fe11  1  0.33721898  1.00362245  0.33713233  1
  Ni  Ni12  1  0.33692555  0.33715884  0.00380497  1
  Fe  Fe13  1  0.50290227  0.50340807  0.16997975  1
  Fe  Fe14  1  0.33642604  0.33765835  0.33640194  1
  Fe  Fe15  1  0.33673628  0.66938175  0.00409593  1
  Fe  Fe16  1  0.50306688  0.83640051  0.17055807  1
  Fe  Fe17  1  0.33642082  0.66983997  0.33713269  1
  Fe  Fe18  1  0.67003800  0.00404638  1.00342319  1
  Fe  Fe19  1  0.83768388  0.17101751  0.17055807  1
  Fe  Fe20  1  0.67037894  1.00370545  0.33703992  1
  Fe  Fe21  1  0.66968899  0.33695164  0.00370889  1
  Fe  Fe22  1  0.83755825  0.50370884  0.17046575  1
  Fe  Fe23  1  0.67046194  0.33686541  0.33713233  1
  Fe  Fe24  1  0.67004416  0.67013476  1.00331344  1
  Fe  Fe25  1  0.83768454  0.83639984  0.16971779  1
  Fe  Fe26  1  0.67037985  0.67055576  0.33703990  1
  Fe  Fe27  1  0.17037911  0.17088563  0.50380110  1
  Fe  Fe28  1  1.00331675  1.00340781  0.67077145  1
  Fe  Fe29  1  0.17004372  0.16986709  0.83734731  1
  Ni  Ni30  1  0.17070572  0.50337867  0.50398340  1
  Fe  Fe31  1  0.00401465  0.33734862  0.66989815  1
  Fe  Fe32  1  0.17004390  0.50404048  0.83734575  1
  Fe  Fe33  1  0.17046098  0.83652429  0.50370863  1
  Fe  Fe34  1  0.00371142  0.67037297  0.67038664  1
  Fe  Fe35  1  0.16967560  0.83721922  0.83695203  1
  Fe  Fe36  1  0.50306354  0.17102084  0.50370900  1
  Fe  Fe37  1  0.33713284  1.00370848  0.67028552  1
  Fe  Fe38  1  0.50403349  0.17005089  0.83734661  1
  Fe  Fe39  1  0.50319876  0.50370528  0.50380110  1
  Fe  Fe40  1  0.33673666  0.33734773  0.67073961  1
  Fe  Fe41  1  0.50421729  0.50404067  0.83734731  1
  Fe  Fe42  1  0.50298153  0.83640018  0.50361653  1
  Fe  Fe43  1  0.33673577  0.67006973  0.66989815  1
  Fe  Fe44  1  0.50437846  0.83703497  0.83695199  1
  Fe  Fe45  1  0.83768421  0.17110286  0.50361653  1
  Fe  Fe46  1  0.67067123  1.00341316  0.67066162  1
  Fe  Fe47  1  0.83704941  0.16970593  0.83695199  1
  Fe  Fe48  1  0.83756010  0.50362341  0.50370863  1
  Fe  Fe49  1  0.67037591  0.33695155  0.67028552  1
  Fe  Fe50  1  0.83686517  0.50440879  0.83695203  1
  Fe  Fe51  1  0.83768404  0.83640035  0.50435178  1
  Fe  Fe52  1  0.67067658  0.67076764  0.67077145  1
  Ni  Ni53  1  0.83639466  0.83768973  0.83705468  1
" 