4151,Ni94Fe3Cr1_19,-239.003464715726, 177.408625483558,Ni94Fe3Cr1,"# generated using pymatgen
 data_Cr2FeNi51
_symmetry_space_group_name_H-M   'P 1'
_cell_length_a   7.46180918
_cell_length_b   7.46180918
_cell_length_c   10.55259174
_cell_angle_alpha   90.00000000
_cell_angle_beta   90.00000000
_cell_angle_gamma   90.00000000
_symmetry_Int_Tables_number   1
_chemical_formula_structural   Cr2FeNi51
_chemical_formula_sum   'Cr2 Fe1 Ni51'
_cell_volume   587.55349461
_cell_formula_units_Z   1
loop_
 _symmetry_equiv_pos_site_id
 _symmetry_equiv_pos_as_xyz
  1  'x, y, z'
loop_
 _atom_site_type_symbol
 _atom_site_label
 _atom_site_symmetry_multiplicity
 _atom_site_fract_x
 _atom_site_fract_y
 _atom_site_fract_z
 _atom_site_occupancy
  Ni  Ni0  1  0.99908587  1.00026447  0.00067409  1
  Ni  Ni1  1  0.16591318  0.16808073  0.16790181  1
  Ni  Ni2  1  0.00105877  0.99996451  0.33345352  1
  Ni  Ni3  1  0.00058006  0.33394776  0.00067229  1
  Ni  Ni4  1  0.16698129  0.50036793  0.16678344  1
  Ni  Ni5  1  0.00089577  0.33422911  0.33368435  1
  Ni  Ni6  1  1.00009146  0.66683546  1.00010428  1
  Ni  Ni7  1  0.16591037  0.83257020  0.16789839  1
  Ni  Ni8  1  0.99932579  0.66686910  0.33391585  1
  Cr  Cr9  1  0.33315078  0.00127533  0.00040320  1
  Ni  Ni10  1  0.50157836  0.16805054  0.16787018  1
  Ni  Ni11  1  0.33353382  0.00124225  0.33389357  1
  Ni  Ni12  1  0.33352513  0.33516802  1.00032079  1
  Ni  Ni13  1  0.50034797  0.50022807  0.16681167  1
  Ni  Ni14  1  0.33353576  0.33265912  0.33345285  1
  Ni  Ni15  1  0.33368821  0.66553377  0.00081452  1
  Ni  Ni16  1  0.50138934  0.83274011  0.16789307  1
  Fe  Fe17  1  0.33350593  0.66683926  0.33368435  1
  Ni  Ni18  1  0.66830907  1.00009412  0.00044373  1
  Ni  Ni19  1  0.83354360  0.16694204  0.16708888  1
  Ni  Ni20  1  0.66647456  0.99980789  0.33368435  1
  Ni  Ni21  1  0.66695043  0.33412438  0.00043972  1
  Ni  Ni22  1  0.83370589  0.50032538  0.16700935  1
  Ni  Ni23  1  0.66663118  0.33439210  0.33391518  1
  Ni  Ni24  1  0.66727363  0.66683197  0.00053193  1
  Ni  Ni25  1  0.83371550  0.83378131  0.16677885  1
  Ni  Ni26  1  0.66790891  0.66686715  0.33347513  1
  Ni  Ni27  1  0.16699204  0.16703923  0.50035934  1
  Ni  Ni28  1  0.00079105  1.00028377  0.66692898  1
  Ni  Ni29  1  0.16582167  0.16809360  0.83280183  1
  Ni  Ni30  1  0.16703459  0.50031462  0.50058526  1
  Ni  Ni31  1  0.00061443  0.33391340  0.66669641  1
  Ni  Ni32  1  0.16721095  0.50054429  0.83368435  1
  Ni  Ni33  1  0.16689474  0.83368131  0.50055703  1
  Ni  Ni34  1  0.00183469  0.66685847  0.66704790  1
  Ni  Ni35  1  0.16608456  0.83244904  0.83261550  1
  Ni  Ni36  1  0.50044798  0.16704884  0.50058985  1
  Ni  Ni37  1  0.33349864  0.00060697  0.66683677  1
  Ni  Ni38  1  0.50159608  0.16809572  0.83259412  1
  Ni  Ni39  1  0.49923687  0.49924371  0.49947031  1
  Ni  Ni40  1  0.33350213  0.33342479  0.66726442  1
  Ni  Ni41  1  0.49911571  0.49941790  0.83475320  1
  Ni  Ni42  1  0.49940678  0.83472268  0.49947563  1
  Ni  Ni43  1  0.33220043  0.66702154  0.66655418  1
  Ni  Ni44  1  0.50021795  0.83355128  0.83368435  1
  Ni  Ni45  1  0.83360870  0.16687693  0.50027982  1
  Ni  Ni46  1  0.66676078  0.00164240  0.66692497  1
  Ni  Ni47  1  0.83361308  0.16694641  0.83368435  1
  Ni  Ni48  1  0.83474739  0.49924651  0.49946689  1
  Ni  Ni49  1  0.66693113  0.33241920  0.66669461  1
  Ni  Ni50  1  0.83476027  0.49915500  0.83456687  1
  Ni  Ni51  1  0.83471721  0.83491169  0.49949852  1
  Cr  Cr52  1  0.66794199  0.66648411  0.66696549  1
  Ni  Ni53  1  0.83476238  0.83492941  0.83477458  1
" 