3512,Ni94Fe5Cr0_13,-239.38524774222, 180.876093693567,Ni94Fe5Cr0,"# generated using pymatgen
 data_CrFeNi25
_symmetry_space_group_name_H-M   'P 1'
_cell_length_a   7.45494173
_cell_length_b   7.45494173
_cell_length_c   10.54287970
_cell_angle_alpha   90.00000000
_cell_angle_beta   90.00000000
_cell_angle_gamma   90.00000000
_symmetry_Int_Tables_number   1
_chemical_formula_structural   CrFeNi25
_chemical_formula_sum   'Cr2 Fe2 Ni50'
_cell_volume   585.93272901
_cell_formula_units_Z   2
loop_
 _symmetry_equiv_pos_site_id
 _symmetry_equiv_pos_as_xyz
  1  'x, y, z'
loop_
 _atom_site_type_symbol
 _atom_site_label
 _atom_site_symmetry_multiplicity
 _atom_site_fract_x
 _atom_site_fract_y
 _atom_site_fract_z
 _atom_site_occupancy
  Ni  Ni0  1  0.00126165  1.00036223  0.00181092  1
  Ni  Ni1  1  0.16758016  0.16757110  0.16692547  1
  Fe  Fe2  1  1.00080548  0.00081839  0.33415353  1
  Ni  Ni3  1  0.00149497  0.33483127  0.00158767  1
  Ni  Ni4  1  0.16667234  0.49999194  0.16818001  1
  Ni  Ni5  1  0.00088178  0.33480554  0.33407161  1
  Ni  Ni6  1  0.99873267  0.66724261  1.00034766  1
  Ni  Ni7  1  0.16674874  0.83487513  0.16811198  1
  Ni  Ni8  1  0.00081255  0.66664609  0.33412895  1
  Ni  Ni9  1  0.33438127  0.00289120  1.00034766  1
  Ni  Ni10  1  0.50081689  0.16750821  0.16699488  1
  Ni  Ni11  1  0.33497778  1.00081132  0.33412895  1
  Ni  Ni12  1  0.33390868  0.33206617  0.00081986  1
  Ni  Ni13  1  0.50164872  0.49997515  0.16822303  1
  Ni  Ni14  1  0.33369223  0.33393028  0.33389150  1
  Cr  Cr15  1  0.33414532  0.66747856  0.00081891  1
  Ni  Ni16  1  0.50163193  0.83495153  0.16818001  1
  Ni  Ni17  1  0.33392945  0.66769442  0.33448840  1
  Ni  Ni18  1  0.66679260  1.00012891  0.00158767  1
  Ni  Ni19  1  0.83404012  0.16758375  0.16751688  1
  Ni  Ni20  1  0.66681833  1.00074209  0.33407161  1
  Ni  Ni21  1  0.66703029  0.33459358  0.00136765  1
  Ni  Ni22  1  0.83411566  0.50080698  0.16699488  1
  Ni  Ni23  1  0.66786077  0.33376310  0.33452731  1
  Ni  Ni24  1  0.66955770  0.66771520  0.00081986  1
  Ni  Ni25  1  0.83405278  0.83404371  0.16692547  1
  Ni  Ni26  1  0.66769359  0.66793165  0.33389150  1
  Ni  Ni27  1  0.16736227  0.16755256  0.50110750  1
  Ni  Ni28  1  0.00121324  1.00041064  0.66631849  1
  Ni  Ni29  1  0.16933516  0.16744971  0.83439866  1
  Ni  Ni30  1  0.16745551  0.50079126  0.50086146  1
  Ni  Ni31  1  0.00225555  0.33500035  0.66677443  1
  Ni  Ni32  1  0.16682647  0.50017547  0.83339378  1
  Ni  Ni33  1  0.16753272  0.83409115  0.50097161  1
  Ni  Ni34  1  1.00038262  0.66702637  0.66795895  1
  Ni  Ni35  1  0.16681201  0.83481186  0.83335108  1
  Ni  Ni36  1  0.50092905  0.16740696  0.50097819  1
  Ni  Ni37  1  0.33459750  0.00124125  0.66795895  1
  Ni  Ni38  1  0.49884629  0.16738741  0.83446715  1
  Ni  Ni39  1  0.50076059  0.50086328  0.50075509  1
  Ni  Ni40  1  0.33331678  0.33393207  0.66772300  1
  Ni  Ni41  1  0.50137400  0.50024987  0.83345981  1
  Ni  Ni42  1  0.50083261  0.83416836  0.50086146  1
  Ni  Ni43  1  0.33436077  0.66726310  0.66713373  1
  Ni  Ni44  1  0.50144840  0.83479740  0.83339378  1
  Ni  Ni45  1  0.83414309  0.16748078  0.50068433  1
  Ni  Ni46  1  0.66662353  0.99936832  0.66677443  1
  Cr  Cr47  1  0.83431802  0.16730586  0.83429986  1
  Ni  Ni48  1  0.83421692  0.50069483  0.50097819  1
  Fe  Fe49  1  0.66664327  0.33498061  0.66663051  1
  Ni  Ni50  1  0.83423646  0.50277758  0.83446715  1
  Ni  Ni51  1  0.83407132  0.83426160  0.50110750  1
  Ni  Ni52  1  0.66769180  0.66830710  0.66772300  1
  Ni  Ni53  1  0.83417416  0.83228871  0.83439866  1
" 