5774,Ni94Fe5Cr0_4,-239.322754247596, 180.363674678577,Ni94Fe5Cr0,"# generated using pymatgen
 data_CrFeNi25
_symmetry_space_group_name_H-M   'P 1'
_cell_length_a   7.45696476
_cell_length_b   7.45696476
_cell_length_c   10.54574070
_cell_angle_alpha   90.00000000
_cell_angle_beta   90.00000000
_cell_angle_gamma   90.00000000
_symmetry_Int_Tables_number   1
_chemical_formula_structural   CrFeNi25
_chemical_formula_sum   'Cr2 Fe2 Ni50'
_cell_volume   586.40986884
_cell_formula_units_Z   2
loop_
 _symmetry_equiv_pos_site_id
 _symmetry_equiv_pos_as_xyz
  1  'x, y, z'
loop_
 _atom_site_type_symbol
 _atom_site_label
 _atom_site_symmetry_multiplicity
 _atom_site_fract_x
 _atom_site_fract_y
 _atom_site_fract_z
 _atom_site_occupancy
  Ni  Ni0  1  0.00101845  0.00188720  0.00101886  1
  Ni  Ni1  1  0.16697905  0.16527425  0.16697288  1
  Ni  Ni2  1  0.00091252  1.00040458  0.33354649  1
  Fe  Fe3  1  0.99973563  0.33135202  0.99973944  1
  Cr  Cr4  1  0.16819413  0.50016786  0.16818685  1
  Ni  Ni5  1  0.99985407  0.33342438  0.33413500  1
  Cr  Cr6  1  1.00001234  0.66867584  1.00001373  1
  Ni  Ni7  1  0.16821587  0.83657694  0.16821271  1
  Ni  Ni8  1  0.99984731  0.66819696  0.33498719  1
  Ni  Ni9  1  0.33345576  0.00127915  0.00094530  1
  Ni  Ni10  1  0.50102911  0.16696524  0.16714635  1
  Ni  Ni11  1  0.33349543  0.00084714  0.33348801  1
  Ni  Ni12  1  0.33560900  0.33305161  0.99984660  1
  Ni  Ni13  1  0.50264445  0.50116053  0.16690247  1
  Ni  Ni14  1  0.33480718  0.33323758  0.33479789  1
  Ni  Ni15  1  0.33613119  0.66769572  0.99988148  1
  Ni  Ni16  1  0.50078269  0.83390220  0.16711473  1
  Ni  Ni17  1  0.33437432  0.66794472  0.33436459  1
  Ni  Ni18  1  0.66755406  0.00135616  0.00077506  1
  Ni  Ni19  1  0.83401854  0.16713760  0.16721982  1
  Ni  Ni20  1  0.66762011  0.00084012  0.33373142  1
  Ni  Ni21  1  0.66654402  0.33411708  0.00094531  1
  Ni  Ni22  1  0.83133796  0.49992511  0.16828500  1
  Ni  Ni23  1  0.66736531  0.33430277  0.33373467  1
  Ni  Ni24  1  0.66593979  0.66655303  0.00101874  1
  Ni  Ni25  1  0.83302887  0.83496353  0.16773804  1
  Ni  Ni26  1  0.66780728  0.66688561  0.33329938  1
  Ni  Ni27  1  0.16711377  0.16736633  0.50065443  1
  Ni  Ni28  1  0.00078048  1.00050902  0.66746316  1
  Ni  Ni29  1  0.16675377  0.16703664  0.83440014  1
  Ni  Ni30  1  0.16711705  0.50089259  0.50103257  1
  Ni  Ni31  1  0.00069986  0.33424986  0.66801075  1
  Ni  Ni32  1  0.16781898  0.50039841  0.83295711  1
  Ni  Ni33  1  0.16737177  0.83376929  0.50040759  1
  Ni  Ni34  1  0.00077719  0.66726839  0.66708613  1
  Ni  Ni35  1  0.16883612  0.83459094  0.83340662  1
  Ni  Ni36  1  0.50084479  0.16717180  0.50084352  1
  Ni  Ni37  1  0.33373236  0.00086830  0.66759409  1
  Ni  Ni38  1  0.50106859  0.16692542  0.83403832  1
  Ni  Ni39  1  0.50065702  0.50090266  0.50065432  1
  Ni  Ni40  1  0.33398409  0.33406205  0.66738261  1
  Ni  Ni41  1  0.50088246  0.50138648  0.83447046  1
  Ni  Ni42  1  0.50059642  0.83395369  0.50059618  1
  Ni  Ni43  1  0.33354838  0.66709828  0.66778304  1
  Ni  Ni44  1  0.49997870  0.83371633  0.83431707  1
  Ni  Ni45  1  0.83406977  0.16742705  0.50059617  1
  Ni  Ni46  1  0.66751477  0.00094567  0.66752181  1
  Ni  Ni47  1  0.83420398  0.16794160  0.83421144  1
  Ni  Ni48  1  0.83425404  0.50064467  0.50040770  1
  Ni  Ni49  1  0.66734376  0.33406602  0.66734684  1
  Ni  Ni50  1  0.83332557  0.49930524  0.83333535  1
  Ni  Ni51  1  0.83405981  0.83395678  0.50107091  1
  Ni  Ni52  1  0.66770270  0.66701788  0.66771116  1
  Fe  Fe53  1  0.83315706  0.83491142  0.83316021  1
" 