8076,Ni94Fe3Cr1_5,-239.064218728567, 178.097416138387,Ni94Fe3Cr1,"# generated using pymatgen
 data_Cr2FeNi51
_symmetry_space_group_name_H-M   'P 1'
_cell_length_a   7.46118164
_cell_length_b   7.46118164
_cell_length_c   10.55170427
_cell_angle_alpha   90.00000000
_cell_angle_beta   90.00000000
_cell_angle_gamma   90.00000000
_symmetry_Int_Tables_number   1
_chemical_formula_structural   Cr2FeNi51
_chemical_formula_sum   'Cr2 Fe1 Ni51'
_cell_volume   587.40526762
_cell_formula_units_Z   1
loop_
 _symmetry_equiv_pos_site_id
 _symmetry_equiv_pos_as_xyz
  1  'x, y, z'
loop_
 _atom_site_type_symbol
 _atom_site_label
 _atom_site_symmetry_multiplicity
 _atom_site_fract_x
 _atom_site_fract_y
 _atom_site_fract_z
 _atom_site_occupancy
  Ni  Ni0  1  1.00033207  0.00046685  0.00064053  1
  Ni  Ni1  1  0.16598039  0.16819687  0.16638265  1
  Ni  Ni2  1  0.99993005  0.99919451  0.33279500  1
  Ni  Ni3  1  1.00023968  0.33390415  0.00044374  1
  Ni  Ni4  1  0.16729488  0.50048413  0.16725145  1
  Ni  Ni5  1  0.00115819  0.33498549  0.33279043  1
  Ni  Ni6  1  0.99998661  0.66680764  0.00041526  1
  Ni  Ni7  1  0.16613596  0.83249716  0.16544317  1
  Ni  Ni8  1  1.00026804  0.66700957  0.33390461  1
  Ni  Ni9  1  0.33381821  0.00063933  1.00020178  1
  Ni  Ni10  1  0.50121429  0.16787228  0.16602706  1
  Cr  Cr11  1  0.33359531  1.00033367  0.33390326  1
  Ni  Ni12  1  0.33373492  0.33357143  0.00067614  1
  Ni  Ni13  1  0.49991054  0.50080050  0.16691123  1
  Ni  Ni14  1  0.33384636  0.33528753  0.33390018  1
  Ni  Ni15  1  0.33383210  0.66696529  0.00065632  1
  Ni  Ni16  1  0.50138789  0.83249580  0.16615096  1
  Ni  Ni17  1  0.33359337  0.66553996  0.33366233  1
  Ni  Ni18  1  0.66704111  1.00038692  0.00067544  1
  Ni  Ni19  1  0.83398429  0.16673706  0.16670067  1
  Ni  Ni20  1  0.66764682  0.99944016  0.33278671  1
  Ni  Ni21  1  0.66720238  0.33390035  1.00011724  1
  Ni  Ni22  1  0.83397802  0.50063643  0.16690055  1
  Ni  Ni23  1  0.66616312  0.33499503  0.33278045  1
  Ni  Ni24  1  0.66737186  0.66689200  0.00044495  1
  Ni  Ni25  1  0.83366635  0.83381984  0.16749194  1
  Ni  Ni26  1  0.66731867  0.66675306  0.33390393  1
  Ni  Ni27  1  0.16763909  0.16820469  0.50127031  1
  Ni  Ni28  1  0.00140459  0.99939800  0.66776480  1
  Ni  Ni29  1  0.16703245  0.16787209  0.83351316  1
  Ni  Ni30  1  0.16731825  0.50051335  0.50017299  1
  Ni  Ni31  1  0.00128019  0.33492159  0.66792179  1
  Ni  Ni32  1  0.16737441  0.49971625  0.83374974  1
  Ni  Ni33  1  0.16617986  0.83247659  0.50197915  1
  Ni  Ni34  1  1.00007243  0.66682037  0.66687412  1
  Fe  Fe35  1  0.16721877  0.83345309  0.83385750  1
  Ni  Ni36  1  0.49952211  0.16786817  0.50163317  1
  Ni  Ni37  1  0.33380805  0.00054590  0.66707647  1
  Ni  Ni38  1  0.49986319  0.16652149  0.83351807  1
  Ni  Ni39  1  0.49987711  0.50084181  0.50052180  1
  Ni  Ni40  1  0.33373248  0.33365218  0.66659380  1
  Ni  Ni41  1  0.49953084  0.50110101  0.83374415  1
  Ni  Ni42  1  0.50135017  0.83247839  0.50126800  1
  Ni  Ni43  1  0.33381469  0.66698752  0.66687243  1
  Ni  Ni44  1  0.50108480  0.83354949  0.83375092  1
  Cr  Cr45  1  0.83390962  0.16678701  0.50045687  1
  Ni  Ni46  1  0.66602728  0.99935826  0.66768900  1
  Ni  Ni47  1  0.83427662  0.16635514  0.83395862  1
  Ni  Ni48  1  0.83398376  0.50232033  0.50076645  1
  Ni  Ni49  1  0.66613925  0.33495886  0.66827206  1
  Ni  Ni50  1  0.83428007  0.50093996  0.83351971  1
  Ni  Ni51  1  0.83365914  0.83218196  0.50017624  1
  Ni  Ni52  1  0.66728730  0.66689739  0.66683554  1
  Ni  Ni53  1  0.83292933  0.83389343  0.83351254  1
" 