4916,Ni94Fe5Cr0_5,-239.405228923399, 180.838957132004,Ni94Fe5Cr0,"# generated using pymatgen
 data_CrFeNi25
_symmetry_space_group_name_H-M   'P 1'
_cell_length_a   7.45542999
_cell_length_b   7.45542999
_cell_length_c   10.54357020
_cell_angle_alpha   90.00000000
_cell_angle_beta   90.00000000
_cell_angle_gamma   90.00000000
_symmetry_Int_Tables_number   1
_chemical_formula_structural   CrFeNi25
_chemical_formula_sum   'Cr2 Fe2 Ni50'
_cell_volume   586.04786290
_cell_formula_units_Z   2
loop_
 _symmetry_equiv_pos_site_id
 _symmetry_equiv_pos_as_xyz
  1  'x, y, z'
loop_
 _atom_site_type_symbol
 _atom_site_label
 _atom_site_symmetry_multiplicity
 _atom_site_fract_x
 _atom_site_fract_y
 _atom_site_fract_z
 _atom_site_occupancy
  Ni  Ni0  1  1.00067672  1.00064285  0.00107840  1
  Ni  Ni1  1  0.16744580  0.16742130  0.16747002  1
  Ni  Ni2  1  0.00252973  0.00083191  0.33403239  1
  Ni  Ni3  1  0.00217607  0.33373078  1.00070999  1
  Ni  Ni4  1  0.16744580  0.50053418  0.16673734  1
  Ni  Ni5  1  1.00045223  0.33402881  0.33409084  1
  Ni  Ni6  1  1.00053323  0.66796489  1.00071097  1
  Ni  Ni7  1  0.16744580  0.83438168  0.16771762  1
  Ni  Ni8  1  1.00064313  0.66747662  0.33428324  1
  Ni  Ni9  1  0.33421489  1.00064285  0.00107840  1
  Ni  Ni10  1  0.49887799  0.16766567  0.16721843  1
  Ni  Ni11  1  0.33236188  0.00083191  0.33403239  1
  Ni  Ni12  1  0.33271554  0.33373078  1.00070999  1
  Ni  Ni13  1  0.50020771  0.50161986  0.16855385  1
  Ni  Ni14  1  0.33443938  0.33402881  0.33409084  1
  Ni  Ni15  1  0.33435838  0.66796489  1.00071097  1
  Ni  Ni16  1  0.49996371  0.83305159  0.16613408  1
  Ni  Ni17  1  0.33424848  0.66747662  0.33428324  1
  Ni  Ni18  1  0.66744580  0.99900127  1.00017137  1
  Ni  Ni19  1  0.83601362  0.16766567  0.16721843  1
  Cr  Cr20  1  0.66744580  0.00098874  0.33417041  1
  Cr  Cr21  1  0.66744580  0.33390877  0.00142884  1
  Ni  Ni22  1  0.83468390  0.50161986  0.16855385  1
  Ni  Ni23  1  0.66744580  0.33591545  0.33422552  1
  Ni  Ni24  1  0.66744580  0.66946289  0.00107871  1
  Ni  Ni25  1  0.83492790  0.83305159  0.16613408  1
  Ni  Ni26  1  0.66744580  0.66539873  0.33384004  1
  Ni  Ni27  1  0.16744580  0.16720124  0.50048138  1
  Ni  Ni28  1  0.00112318  0.00083176  0.66722775  1
  Ni  Ni29  1  0.16744580  0.16704742  0.83438636  1
  Ni  Ni30  1  0.16744580  0.50077473  0.50125017  1
  Ni  Ni31  1  0.99992232  0.33349843  0.66753425  1
  Fe  Fe32  1  0.16744580  0.50072500  0.83416354  1
  Ni  Ni33  1  0.16744580  0.83436136  0.50048153  1
  Ni  Ni34  1  1.00011125  0.66800799  0.66734181  1
  Ni  Ni35  1  0.16744580  0.83475880  0.83413875  1
  Ni  Ni36  1  0.49961056  0.16861507  0.50173914  1
  Ni  Ni37  1  0.33376843  0.00083176  0.66722775  1
  Ni  Ni38  1  0.49938168  0.16716787  0.83338060  1
  Ni  Ni39  1  0.50102842  0.50077886  0.50048142  1
  Ni  Ni40  1  0.33496929  0.33349843  0.66753425  1
  Ni  Ni41  1  0.50058518  0.50161613  0.83330498  1
  Ni  Ni42  1  0.49961372  0.83294262  0.50173855  1
  Ni  Ni43  1  0.33478036  0.66800799  0.66734181  1
  Ni  Ni44  1  0.50046266  0.83355127  0.83446297  1
  Ni  Ni45  1  0.83528105  0.16861507  0.50173914  1
  Fe  Fe46  1  0.66744580  0.00083393  0.66783169  1
  Ni  Ni47  1  0.83550993  0.16716787  0.83338060  1
  Ni  Ni48  1  0.83386319  0.50077886  0.50048142  1
  Ni  Ni49  1  0.66744580  0.33450777  0.66703353  1
  Ni  Ni50  1  0.83430643  0.50161613  0.83330498  1
  Ni  Ni51  1  0.83527789  0.83294262  0.50173855  1
  Ni  Ni52  1  0.66744580  0.66680428  0.66741930  1
  Ni  Ni53  1  0.83442895  0.83355127  0.83446297  1
" 