6767,Ni94Fe5Cr0_2,-239.356354781194, 180.473742696584,Ni94Fe5Cr0,"# generated using pymatgen
 data_CrFeNi25
_symmetry_space_group_name_H-M   'P 1'
_cell_length_a   7.45599367
_cell_length_b   7.45599367
_cell_length_c   10.54436737
_cell_angle_alpha   90.00000000
_cell_angle_beta   90.00000000
_cell_angle_gamma   90.00000000
_symmetry_Int_Tables_number   1
_chemical_formula_structural   CrFeNi25
_chemical_formula_sum   'Cr2 Fe2 Ni50'
_cell_volume   586.18080141
_cell_formula_units_Z   2
loop_
 _symmetry_equiv_pos_site_id
 _symmetry_equiv_pos_as_xyz
  1  'x, y, z'
loop_
 _atom_site_type_symbol
 _atom_site_label
 _atom_site_symmetry_multiplicity
 _atom_site_fract_x
 _atom_site_fract_y
 _atom_site_fract_z
 _atom_site_occupancy
  Ni  Ni0  1  1.00048272  1.00050865  0.00116242  1
  Ni  Ni1  1  0.16722968  0.16778786  0.16715965  1
  Fe  Fe2  1  1.00017984  1.00069187  0.33402111  1
  Ni  Ni3  1  0.00176403  0.33307905  0.00173689  1
  Ni  Ni4  1  0.16704646  0.50061129  0.16712023  1
  Ni  Ni5  1  0.00117934  0.33427578  0.33407552  1
  Ni  Ni6  1  0.00176389  0.66863510  0.00197283  1
  Ni  Ni7  1  0.16565376  0.83382685  0.16716040  1
  Ni  Ni8  1  0.00118041  0.66744421  0.33383839  1
  Ni  Ni9  1  0.33329393  0.00154802  1.00036255  1
  Ni  Ni10  1  0.50088759  0.16927993  0.16723321  1
  Fe  Fe11  1  0.33376346  0.00161261  0.33494288  1
  Ni  Ni12  1  0.33409122  0.33411762  0.00093693  1
  Ni  Ni13  1  0.50099273  0.49904138  0.16715744  1
  Ni  Ni14  1  0.33386862  0.33427431  0.33383839  1
  Ni  Ni15  1  0.33305074  0.66655967  0.99990001  1
  Cr  Cr16  1  0.50073526  0.83387409  0.16719967  1
  Ni  Ni17  1  0.33282952  0.66639979  0.33487640  1
  Ni  Ni18  1  0.66844517  0.00154832  0.99965950  1
  Ni  Ni19  1  0.83410558  0.16789150  0.16704761  1
  Ni  Ni20  1  0.66821683  0.00154701  0.33487552  1
  Ni  Ni21  1  0.66636924  0.33283592  0.00221592  1
  Ni  Ni22  1  0.83418419  0.50060983  0.16752669  1
  Ni  Ni23  1  0.66717548  0.33319805  0.33383853  1
  Ni  Ni24  1  0.66740989  0.66783809  0.00117653  1
  Ni  Ni25  1  0.83567484  0.83372436  0.16704942  1
  Ni  Ni26  1  0.66821249  0.66747915  0.33487545  1
  Ni  Ni27  1  0.16741221  0.16760919  0.50093743  1
  Ni  Ni28  1  1.00048169  1.00073601  0.66722387  1
  Ni  Ni29  1  0.16758780  0.16721578  0.83412802  1
  Ni  Ni30  1  0.16722567  0.50079086  0.50097602  1
  Ni  Ni31  1  0.00176639  0.33307647  0.66640899  1
  Ni  Ni32  1  0.16916310  0.50078964  0.83412790  1
  Ni  Ni33  1  0.16759271  0.83382552  0.50075273  1
  Ni  Ni34  1  0.00176518  0.66841052  0.66641029  1
  Ni  Ni35  1  0.16777004  0.83421835  0.83431228  1
  Ni  Ni36  1  0.50088688  0.16734589  0.50067829  1
  Ni  Ni37  1  0.33410092  1.00074115  0.66698662  1
  Ni  Ni38  1  0.50060369  0.16704355  0.83431217  1
  Ni  Ni39  1  0.50099349  0.50097245  0.50075511  1
  Ni  Ni40  1  0.33386395  0.33411854  0.66744976  1
  Ni  Ni41  1  0.49904331  0.50097202  0.83431248  1
  Ni  Ni42  1  0.50088701  0.83390630  0.50104826  1
  Ni  Ni43  1  0.33385847  0.66736481  0.66744911  1
  Ni  Ni44  1  0.50060367  0.83420842  0.83394222  1
  Ni  Ni45  1  0.83392352  0.16771379  0.50105057  1
  Ni  Ni46  1  0.66764074  0.00074143  0.66769051  1
  Ni  Ni47  1  0.83403237  0.16565038  0.83412800  1
  Ni  Ni48  1  0.83400436  0.50078949  0.50056904  1
  Ni  Ni49  1  0.66659420  0.33283449  0.66616769  1
  Cr  Cr50  1  0.83424633  0.50056636  0.83390475  1
  Ni  Ni51  1  0.83374346  0.83372135  0.50086555  1
  Ni  Ni52  1  0.66660086  0.66864719  0.66616890  1
  Ni  Ni53  1  0.83385013  0.83577872  0.83431241  1
" 