3437,Ni94Fe5Cr0_9,-239.369340527946, 181.115043848913,Ni94Fe5Cr0,"# generated using pymatgen
 data_CrFeNi25
_symmetry_space_group_name_H-M   'P 1'
_cell_length_a   7.45560804
_cell_length_b   7.45560804
_cell_length_c   10.54382200
_cell_angle_alpha   90.00000000
_cell_angle_beta   90.00000000
_cell_angle_gamma   90.00000000
_symmetry_Int_Tables_number   1
_chemical_formula_structural   CrFeNi25
_chemical_formula_sum   'Cr2 Fe2 Ni50'
_cell_volume   586.08985137
_cell_formula_units_Z   2
loop_
 _symmetry_equiv_pos_site_id
 _symmetry_equiv_pos_as_xyz
  1  'x, y, z'
loop_
 _atom_site_type_symbol
 _atom_site_label
 _atom_site_symmetry_multiplicity
 _atom_site_fract_x
 _atom_site_fract_y
 _atom_site_fract_z
 _atom_site_occupancy
  Ni  Ni0  1  0.00080932  0.00106530  1.00059038  1
  Ni  Ni1  1  0.16731568  0.16704981  0.16632504  1
  Ni  Ni2  1  1.00073570  1.00053059  0.33398329  1
  Ni  Ni3  1  0.00100062  0.33382904  1.00074194  1
  Ni  Ni4  1  0.16574626  0.50133659  0.16676878  1
  Ni  Ni5  1  0.99909762  0.33417464  0.33402688  1
  Ni  Ni6  1  0.00082286  0.66740759  0.00079646  1
  Ni  Ni7  1  0.16795767  0.83391630  0.16785298  1
  Ni  Ni8  1  1.00065439  0.66759356  0.33410015  1
  Ni  Ni9  1  0.33323375  1.00015951  0.00182591  1
  Ni  Ni10  1  0.50158264  0.16593215  0.16671088  1
  Ni  Ni11  1  0.33407833  0.99897446  0.33410032  1
  Ni  Ni12  1  0.33315615  0.33484657  0.00136704  1
  Fe  Fe13  1  0.50167435  0.50163027  0.16647288  1
  Cr  Cr14  1  0.33392099  0.33414077  0.33405329  1
  Ni  Ni15  1  0.33423754  0.66729977  1.00066726  1
  Ni  Ni16  1  0.50075115  0.83523299  0.16766072  1
  Ni  Ni17  1  0.33400229  0.66931685  0.33421693  1
  Ni  Ni18  1  0.66825817  0.99998336  0.00163189  1
  Ni  Ni19  1  0.83340388  0.16813309  0.16789687  1
  Ni  Ni20  1  0.66749007  1.00052762  0.33402663  1
  Ni  Ni21  1  0.66814421  0.33483466  0.00175364  1
  Ni  Ni22  1  0.83471023  0.50050427  0.16759981  1
  Ni  Ni23  1  0.66920985  0.33409967  0.33410131  1
  Ni  Ni24  1  0.66724146  0.66748831  1.00047623  1
  Ni  Ni25  1  0.83359383  0.83366483  0.16735320  1
  Ni  Ni26  1  0.66764452  0.66767435  0.33417342  1
  Ni  Ni27  1  0.16772743  0.16681718  0.50162301  1
  Ni  Ni28  1  0.00092587  0.00094917  0.66773055  1
  Ni  Ni29  1  0.16590863  0.16765955  0.83435337  1
  Ni  Ni30  1  0.16615722  0.50110280  0.50168098  1
  Ni  Ni31  1  0.00111287  0.33396041  0.66753561  1
  Ni  Ni32  1  0.16704352  0.50067903  0.83384795  1
  Ni  Ni33  1  0.16749161  0.83438274  0.50034810  1
  Ni  Ni34  1  0.00083871  0.66739019  0.66740399  1
  Ni  Ni35  1  0.16730384  0.83396311  0.83410068  1
  Ni  Ni36  1  0.50094891  0.16656668  0.50148675  1
  Ni  Ni37  1  0.33325272  1.00013945  0.66637516  1
  Cr  Cr38  1  0.50054703  0.16720919  0.83410004  1
  Ni  Ni39  1  0.50206673  0.50091317  0.50138479  1
  Ni  Ni40  1  0.33326614  0.33497339  0.66676242  1
  Ni  Ni41  1  0.50099249  0.50231551  0.83433634  1
  Ni  Ni42  1  0.50098366  0.83482457  0.50079248  1
  Ni  Ni43  1  0.33434953  0.66718794  0.66741843  1
  Ni  Ni44  1  0.50098561  0.83257613  0.83384659  1
  Fe  Fe45  1  0.83405343  0.16748029  0.50076735  1
  Ni  Ni46  1  0.66812661  0.99986784  0.66664440  1
  Ni  Ni47  1  0.83564876  0.16766640  0.83386421  1
  Ni  Ni48  1  0.83407878  0.50113683  0.50060061  1
  Ni  Ni49  1  0.66792622  0.33505283  0.66645064  1
  Ni  Ni50  1  0.83426672  0.50092537  0.83409950  1
  Ni  Ni51  1  0.83382562  0.83325243  0.50059535  1
  Ni  Ni52  1  0.66711326  0.66737824  0.66765136  1
  Ni  Ni53  1  0.83401222  0.83371033  0.83435285  1
" 