7897,Ni94Fe3Cr1_10,-239.052800738102, 177.46747451306,Ni94Fe3Cr1,"# generated using pymatgen
 data_Cr2FeNi51
_symmetry_space_group_name_H-M   'P 1'
_cell_length_a   7.46298364
_cell_length_b   7.46298364
_cell_length_c   10.55425268
_cell_angle_alpha   90.00000000
_cell_angle_beta   90.00000000
_cell_angle_gamma   90.00000000
_symmetry_Int_Tables_number   1
_chemical_formula_structural   Cr2FeNi51
_chemical_formula_sum   'Cr2 Fe1 Ni51'
_cell_volume   587.83097442
_cell_formula_units_Z   1
loop_
 _symmetry_equiv_pos_site_id
 _symmetry_equiv_pos_as_xyz
  1  'x, y, z'
loop_
 _atom_site_type_symbol
 _atom_site_label
 _atom_site_symmetry_multiplicity
 _atom_site_fract_x
 _atom_site_fract_y
 _atom_site_fract_z
 _atom_site_occupancy
  Ni  Ni0  1  0.00061033  0.99841013  0.99993199  1
  Ni  Ni1  1  0.16843538  0.16633155  0.16752615  1
  Ni  Ni2  1  0.00038520  0.00039839  0.33346373  1
  Cr  Cr3  1  0.99959433  0.33292766  0.00094516  1
  Ni  Ni4  1  0.16731803  0.50065136  0.16790694  1
  Ni  Ni5  1  0.00037557  0.33370891  0.33384505  1
  Ni  Ni6  1  0.99945463  0.66952280  0.00107661  1
  Ni  Ni7  1  0.16625052  0.83383294  0.16645911  1
  Ni  Ni8  1  0.00029067  0.66670848  0.33338837  1
  Ni  Ni9  1  0.33350857  1.00011590  1.00001001  1
  Ni  Ni10  1  0.49956675  0.16721861  0.16664506  1
  Ni  Ni11  1  0.33354824  0.00029942  0.33357549  1
  Ni  Ni12  1  0.33618947  0.33278796  0.00107661  1
  Ni  Ni13  1  0.50049961  0.49958385  0.16645911  1
  Ni  Ni14  1  0.33337515  0.33362400  0.33338837  1
  Ni  Ni15  1  0.33457965  0.66791298  0.00111785  1
  Ni  Ni16  1  0.50068021  0.83401354  0.16688691  1
  Ni  Ni17  1  0.33355959  0.66689292  0.33353338  1
  Ni  Ni18  1  0.66669806  1.00003139  1.00017519  1
  Fe  Fe19  1  0.83269348  0.16602682  0.16784024  1
  Ni  Ni20  1  0.66688068  1.00021402  0.33365181  1
  Ni  Ni21  1  0.66507679  0.33394367  0.99993199  1
  Ni  Ni22  1  0.83299822  0.50176872  0.16752615  1
  Ni  Ni23  1  0.66706506  0.33371853  0.33346373  1
  Ni  Ni24  1  0.66678256  0.66684190  1.00001001  1
  Ni  Ni25  1  0.83388528  0.83290008  0.16664506  1
  Ni  Ni26  1  0.66696609  0.66688157  0.33357549  1
  Ni  Ni27  1  0.16696395  0.16716817  0.50053426  1
  Ni  Ni28  1  0.00049615  0.00051025  0.66741912  1
  Ni  Ni29  1  0.16779810  0.16434819  0.83275835  1
  Ni  Ni30  1  0.16671735  0.50005069  0.49990685  1
  Ni  Ni31  1  0.99942701  0.33276035  0.66597077  1
  Cr  Cr32  1  0.16763516  0.50096849  0.83292182  1
  Ni  Ni33  1  0.16670776  0.83359785  0.50028808  1
  Ni  Ni34  1  0.99944234  0.66754706  0.66635099  1
  Ni  Ni35  1  0.16648358  0.83558685  0.83407084  1
  Ni  Ni36  1  0.50020046  0.16699441  0.50034839  1
  Ni  Ni37  1  0.33332575  0.00031138  0.66723297  1
  Ni  Ni38  1  0.50038592  0.16703443  0.83382411  1
  Ni  Ni39  1  0.50026452  0.50004109  0.50028808  1
  Ni  Ni40  1  0.33421373  0.33277568  0.66635099  1
  Ni  Ni41  1  0.50225352  0.49981691  0.83407084  1
  Ni  Ni42  1  0.50044825  0.83378158  0.50010063  1
  Ni  Ni43  1  0.33439475  0.66772808  0.66616612  1
  Ni  Ni44  1  0.50063152  0.83396486  0.83382871  1
  Ni  Ni45  1  0.83365179  0.16698512  0.49986424  1
  Ni  Ni46  1  0.66699461  0.00032795  0.66699079  1
  Ni  Ni47  1  0.83263171  0.16596504  0.83324312  1
  Ni  Ni48  1  0.83383484  0.50029729  0.50053426  1
  Ni  Ni49  1  0.66717692  0.33382948  0.66741912  1
  Ni  Ni50  1  0.83101486  0.50113143  0.83275835  1
  Ni  Ni51  1  0.83366107  0.83353379  0.50034839  1
  Ni  Ni52  1  0.66697805  0.66665909  0.66723297  1
  Ni  Ni53  1  0.83370109  0.83371925  0.83382411  1
" 