3695,Ni94Fe5Cr0_16,-239.387390427967, 180.849019191105,Ni94Fe5Cr0,"# generated using pymatgen
 data_CrFeNi25
_symmetry_space_group_name_H-M   'P 1'
_cell_length_a   7.45469642
_cell_length_b   7.45469642
_cell_length_c   10.54253278
_cell_angle_alpha   90.00000000
_cell_angle_beta   90.00000000
_cell_angle_gamma   90.00000000
_symmetry_Int_Tables_number   1
_chemical_formula_structural   CrFeNi25
_chemical_formula_sum   'Cr2 Fe2 Ni50'
_cell_volume   585.87488916
_cell_formula_units_Z   2
loop_
 _symmetry_equiv_pos_site_id
 _symmetry_equiv_pos_as_xyz
  1  'x, y, z'
loop_
 _atom_site_type_symbol
 _atom_site_label
 _atom_site_symmetry_multiplicity
 _atom_site_fract_x
 _atom_site_fract_y
 _atom_site_fract_z
 _atom_site_occupancy
  Ni  Ni0  1  1.00056449  0.00108966  0.00083002  1
  Ni  Ni1  1  0.16876239  0.16619848  0.16662107  1
  Ni  Ni2  1  1.00081272  0.99906362  0.33419042  1
  Ni  Ni3  1  0.00157728  0.33320526  0.00165096  1
  Ni  Ni4  1  0.16857090  0.50214232  0.16593117  1
  Cr  Cr5  1  0.00083855  0.33416802  0.33414716  1
  Ni  Ni6  1  0.00157624  0.66818700  0.00199215  1
  Ni  Ni7  1  0.16653561  0.83414425  0.16771367  1
  Ni  Ni8  1  0.00083718  0.66925085  0.33419046  1
  Ni  Ni9  1  0.33403561  0.00097827  1.00081404  1
  Ni  Ni10  1  0.50064636  0.16868987  0.16745693  1
  Ni  Ni11  1  0.33419916  1.00079748  0.33426578  1
  Ni  Ni12  1  0.33400101  0.33430261  0.00089836  1
  Ni  Ni13  1  0.50109687  0.49991782  0.16751920  1
  Ni  Ni14  1  0.33591753  0.33417936  0.33419047  1
  Ni  Ni15  1  0.33411282  0.66720357  1.00063211  1
  Fe  Fe16  1  0.50081767  0.83418075  0.16749954  1
  Ni  Ni17  1  0.33418584  0.66751015  0.33426351  1
  Ni  Ni18  1  0.66788819  0.00098004  1.00051638  1
  Ni  Ni19  1  0.83307510  0.16664673  0.16616923  1
  Ni  Ni20  1  0.66747440  1.00079870  0.33426706  1
  Ni  Ni21  1  0.66691124  0.33328879  0.00192103  1
  Ni  Ni22  1  0.83281994  0.50214215  0.16681486  1
  Ni  Ni23  1  0.66573033  0.33415487  0.33419040  1
  Ni  Ni24  1  0.66679734  0.66822153  0.00165682  1
  Ni  Ni25  1  0.83530778  0.83369516  0.16726143  1
  Ni  Ni26  1  0.66746315  0.66753350  0.33426479  1
  Ni  Ni27  1  0.16852847  0.16643269  0.50147152  1
  Ni  Ni28  1  1.00056437  0.00107287  0.66746531  1
  Ni  Ni29  1  0.16786245  0.16645572  0.83439322  1
  Ni  Ni30  1  0.16833729  0.50190851  0.50216145  1
  Ni  Ni31  1  0.00157470  0.33320080  0.66668546  1
  Fe  Fe32  1  0.16929034  0.50082757  0.83416067  1
  Ni  Ni33  1  0.16717756  0.83414376  0.50063570  1
  Ni  Ni34  1  0.00157565  0.66820929  0.66629738  1
  Ni  Ni35  1  0.16759607  0.83496530  0.83413606  1
  Ni  Ni36  1  0.50064676  0.16803960  0.50089155  1
  Ni  Ni37  1  0.33414784  0.00086603  0.66741001  1
  Ni  Ni38  1  0.50022861  0.16785552  0.83413641  1
  Ni  Ni39  1  0.50109656  0.50055789  0.50082975  1
  Ni  Ni40  1  0.33402153  0.33429971  0.66739312  1
  Ni  Ni41  1  0.49969999  0.50079005  0.83413610  1
  Ni  Ni42  1  0.50064717  0.83388746  0.50064570  1
  Ni  Ni43  1  0.33422698  0.66731771  0.66759011  1
  Ni  Ni44  1  0.50022887  0.83383940  0.83463163  1
  Ni  Ni45  1  0.83330933  0.16688077  0.50192293  1
  Ni  Ni46  1  0.66777404  0.00086585  0.66770572  1
  Ni  Ni47  1  0.83439835  0.16594238  0.83439309  1
  Ni  Ni48  1  0.83305379  0.50190856  0.50127732  1
  Ni  Ni49  1  0.66689270  0.33328642  0.66637242  1
  Cr  Cr50  1  0.83329001  0.50099674  0.83433170  1
  Ni  Ni51  1  0.83465939  0.83369537  0.50108662  1
  Ni  Ni52  1  0.66668612  0.66833274  0.66656812  1
  Ni  Ni53  1  0.83466386  0.83548499  0.83413641  1
" 