1151,Ni94Fe3Cr1_14,-239.052364966575, 177.343940105541,Ni94Fe3Cr1,"# generated using pymatgen
 data_Cr2FeNi51
_symmetry_space_group_name_H-M   'P 1'
_cell_length_a   7.46144988
_cell_length_b   7.46144988
_cell_length_c   10.55208361
_cell_angle_alpha   90.00000000
_cell_angle_beta   90.00000000
_cell_angle_gamma   90.00000000
_symmetry_Int_Tables_number   1
_chemical_formula_structural   Cr2FeNi51
_chemical_formula_sum   'Cr2 Fe1 Ni51'
_cell_volume   587.46862269
_cell_formula_units_Z   1
loop_
 _symmetry_equiv_pos_site_id
 _symmetry_equiv_pos_as_xyz
  1  'x, y, z'
loop_
 _atom_site_type_symbol
 _atom_site_label
 _atom_site_symmetry_multiplicity
 _atom_site_fract_x
 _atom_site_fract_y
 _atom_site_fract_z
 _atom_site_occupancy
  Ni  Ni0  1  0.99974444  1.00033124  0.00056044  1
  Ni  Ni1  1  0.16804595  0.16595492  0.16619633  1
  Ni  Ni2  1  1.00032371  0.99886329  0.33390145  1
  Ni  Ni3  1  0.00083882  0.33309905  1.00018676  1
  Ni  Ni4  1  0.16802576  0.50132834  0.16602442  1
  Cr  Cr5  1  0.99933556  0.33229848  0.33234863  1
  Ni  Ni6  1  0.00083989  0.66771814  0.00054189  1
  Ni  Ni7  1  0.16698531  0.83371608  0.16730931  1
  Ni  Ni8  1  0.99958675  0.66971463  0.33244637  1
  Fe  Fe9  1  0.33382361  1.00011034  1.00013606  1
  Ni  Ni10  1  0.50069954  0.16688781  0.16702004  1
  Ni  Ni11  1  0.33394368  1.00013033  0.33309118  1
  Ni  Ni12  1  0.33384105  0.33440583  0.00054455  1
  Ni  Ni13  1  0.50045236  0.50038255  0.16741798  1
  Ni  Ni14  1  0.33608860  0.33276900  0.33286724  1
  Ni  Ni15  1  0.33400386  0.66653184  1.00023996  1
  Ni  Ni16  1  0.50066158  0.83387267  0.16682434  1
  Ni  Ni17  1  0.33495419  0.66820430  0.33287290  1
  Ni  Ni18  1  0.66762241  1.00014197  1.00023593  1
  Ni  Ni19  1  0.83254173  0.16584682  0.16611838  1
  Ni  Ni20  1  0.66689221  1.00016964  0.33371480  1
  Ni  Ni21  1  0.66645385  0.33329654  0.00055805  1
  Ni  Ni22  1  0.83257292  0.50141781  0.16586327  1
  Ni  Ni23  1  0.66524706  0.33348090  0.33351882  1
  Ni  Ni24  1  0.66627745  0.66766585  1.00023809  1
  Ni  Ni25  1  0.83348077  0.83396953  0.16713361  1
  Ni  Ni26  1  0.66655887  0.66750806  0.33351437  1
  Ni  Ni27  1  0.16824276  0.16445294  0.50131084  1
  Ni  Ni28  1  1.00031826  1.00028568  0.66669811  1
  Ni  Ni29  1  0.16704421  0.16698798  0.83355676  1
  Cr  Cr30  1  0.16809434  0.50161738  0.50147800  1
  Ni  Ni31  1  0.99958581  0.33245963  0.66850981  1
  Ni  Ni32  1  0.16711044  0.50044069  0.83380976  1
  Ni  Ni33  1  0.16722244  0.83543581  0.50024088  1
  Ni  Ni34  1  0.99956713  0.66840947  0.66817345  1
  Ni  Ni35  1  0.16683209  0.83366298  0.83353142  1
  Ni  Ni36  1  0.50043502  0.16662751  0.50024624  1
  Ni  Ni37  1  0.33393011  1.00012364  0.66777453  1
  Ni  Ni38  1  0.50068863  0.16703221  0.83386143  1
  Ni  Ni39  1  0.50210061  0.50037424  0.50024105  1
  Ni  Ni40  1  0.33483637  0.33275072  0.66775684  1
  Ni  Ni41  1  0.50042072  0.50024221  0.83344063  1
  Ni  Ni42  1  0.50040443  0.83409862  0.50042722  1
  Ni  Ni43  1  0.33493628  0.66818075  0.66798578  1
  Ni  Ni44  1  0.50069444  0.83384585  0.83385062  1
  Ni  Ni45  1  0.83244721  0.16597030  0.50131433  1
  Ni  Ni46  1  0.66687368  1.00014535  0.66716726  1
  Ni  Ni47  1  0.83341656  0.16674940  0.83375921  1
  Ni  Ni48  1  0.83127943  0.50141674  0.50133092  1
  Ni  Ni49  1  0.66671151  0.33347691  0.66708091  1
  Ni  Ni50  1  0.83356858  0.50045285  0.83392332  1
  Ni  Ni51  1  0.83347759  0.83377798  0.50024733  1
  Ni  Ni52  1  0.66656128  0.66748557  0.66734998  1
  Ni  Ni53  1  0.83361411  0.83393657  0.83376418  1
" 