58,Ni94Fe2Cr2_3,-239.052364966575, 177.343940113313,Ni94Fe2Cr2,"# generated using pymatgen
 data_Cr2FeNi51
_symmetry_space_group_name_H-M   'P 1'
_cell_length_a   7.46144988
_cell_length_b   7.46144988
_cell_length_c   10.55208361
_cell_angle_alpha   90.00000000
_cell_angle_beta   90.00000000
_cell_angle_gamma   90.00000000
_symmetry_Int_Tables_number   1
_chemical_formula_structural   Cr2FeNi51
_chemical_formula_sum   'Cr2 Fe1 Ni51'
_cell_volume   587.46862269
_cell_formula_units_Z   1
loop_
 _symmetry_equiv_pos_site_id
 _symmetry_equiv_pos_as_xyz
  1  'x, y, z'
loop_
 _atom_site_type_symbol
 _atom_site_label
 _atom_site_symmetry_multiplicity
 _atom_site_fract_x
 _atom_site_fract_y
 _atom_site_fract_z
 _atom_site_occupancy
  Ni  Ni0  1  0.99933348  0.99794610  0.00133092  1
  Ni  Ni1  1  0.16829059  0.16625247  0.16850981  1
  Ni  Ni2  1  1.00029737  1.00023525  0.33392332  1
  Cr  Cr3  1  0.99913284  0.33476101  0.00147800  1
  Ni  Ni4  1  0.16799950  0.50150304  0.16775684  1
  Ni  Ni5  1  1.00030953  0.33377710  0.33380976  1
  Ni  Ni6  1  0.00037598  0.66876728  1.00024105  1
  Ni  Ni7  1  0.16727331  0.83337818  0.16708091  1
  Ni  Ni8  1  0.00050801  0.66708739  0.33344063  1
  Ni  Ni9  1  0.33477992  0.99911388  0.00131433  1
  Ni  Ni10  1  0.50046455  0.16698493  0.16669811  1
  Ni  Ni11  1  0.33400082  1.00008323  0.33375921  1
  Ni  Ni12  1  0.33629728  0.33490943  0.00131084  1
  Ni  Ni13  1  0.50062658  0.50059677  0.16777453  1
  Ni  Ni14  1  0.33376224  0.33371088  0.33355676  1
  Ni  Ni15  1  0.33412271  0.66710168  1.00024624  1
  Ni  Ni16  1  0.50060487  0.83354034  0.16716726  1
  Ni  Ni17  1  0.33371801  0.66735530  0.33386143  1
  Ni  Ni18  1  0.66697224  1.00014426  1.00024733  1
  Ni  Ni19  1  0.83234075  0.16623379  0.16817345  1
  Ni  Ni20  1  0.66681365  1.00028078  0.33376418  1
  Ni  Ni21  1  0.66531441  0.33388911  1.00024088  1
  Ni  Ni22  1  0.83256947  0.50160294  0.16798578  1
  Ni  Ni23  1  0.66708724  0.33349876  0.33353142  1
  Ni  Ni24  1  0.66665160  0.66707109  0.00042722  1
  Ni  Ni25  1  0.83326465  0.83322794  0.16734998  1
  Ni  Ni26  1  0.66690437  0.66736111  0.33385062  1
  Ni  Ni27  1  0.16765117  0.16750549  0.50018676  1
  Ni  Ni28  1  0.99933242  0.99923959  0.66586327  1
  Cr  Cr29  1  0.16845174  0.16600223  0.83234863  1
  Ni  Ni30  1  0.16634439  0.50050771  0.50054455  1
  Ni  Ni31  1  0.99942188  0.33469243  0.66602442  1
  Ni  Ni32  1  0.16798122  0.50275526  0.83286724  1
  Ni  Ni33  1  0.16745368  0.83312051  0.50055805  1
  Ni  Ni34  1  1.00036767  0.66711902  0.66741798  1
  Ni  Ni35  1  0.16726932  0.83191373  0.83351882  1
  Ni  Ni36  1  0.50041898  0.16641111  0.50056044  1
  Ni  Ni37  1  0.33490340  0.99920839  0.66611838  1
  Ni  Ni38  1  0.50188693  0.16699038  0.83390145  1
  Fe  Fe39  1  0.50063988  0.50049028  0.50013606  1
  Ni  Ni40  1  0.33479530  0.33471261  0.66619633  1
  Ni  Ni41  1  0.50061989  0.50061035  0.83309118  1
  Ni  Ni42  1  0.50060825  0.83428908  0.50023593  1
  Ni  Ni43  1  0.33386241  0.66736620  0.66702004  1
  Ni  Ni44  1  0.50058058  0.83355887  0.83371480  1
  Ni  Ni45  1  0.83303208  0.16750655  0.50054189  1
  Ni  Ni46  1  0.66678069  1.00014743  0.66713361  1
  Ni  Ni47  1  0.83103559  0.16625342  0.83244637  1
  Ni  Ni48  1  0.83421838  0.50067053  0.50023996  1
  Ni  Ni49  1  0.66703414  0.33365198  0.66730931  1
  Ni  Ni50  1  0.83254592  0.50162086  0.83287290  1
  Ni  Ni51  1  0.83308437  0.83294411  0.50023809  1
  Ni  Ni52  1  0.66687755  0.66732824  0.66682434  1
  Ni  Ni53  1  0.83324216  0.83322554  0.83351437  1
" 