8664,Ni94Fe2Cr2_13,-239.030907842637, 177.805264486949,Ni94Fe2Cr2,"# generated using pymatgen
 data_Cr2FeNi51
_symmetry_space_group_name_H-M   'P 1'
_cell_length_a   7.46130273
_cell_length_b   7.46130273
_cell_length_c   10.55187551
_cell_angle_alpha   90.00000000
_cell_angle_beta   90.00000000
_cell_angle_gamma   90.00000000
_symmetry_Int_Tables_number   1
_chemical_formula_structural   Cr2FeNi51
_chemical_formula_sum   'Cr2 Fe1 Ni51'
_cell_volume   587.43386708
_cell_formula_units_Z   1
loop_
 _symmetry_equiv_pos_site_id
 _symmetry_equiv_pos_as_xyz
  1  'x, y, z'
loop_
 _atom_site_type_symbol
 _atom_site_label
 _atom_site_symmetry_multiplicity
 _atom_site_fract_x
 _atom_site_fract_y
 _atom_site_fract_z
 _atom_site_occupancy
  Ni  Ni0  1  0.00056230  1.00021010  1.00020704  1
  Ni  Ni1  1  0.16713798  0.16746891  0.16735893  1
  Ni  Ni2  1  0.00056174  1.00021883  0.33416248  1
  Ni  Ni3  1  0.00038751  0.33358487  0.99996146  1
  Ni  Ni4  1  0.16697576  0.50020415  0.16698720  1
  Ni  Ni5  1  1.00036761  0.33368719  0.33404476  1
  Ni  Ni6  1  0.00056161  0.66735862  0.00064342  1
  Ni  Ni7  1  0.16732299  0.83348040  0.16736242  1
  Ni  Ni8  1  0.00052522  0.66724721  0.33336828  1
  Ni  Ni9  1  0.33358972  0.00038671  0.00044430  1
  Ni  Ni10  1  0.50036853  0.16696088  0.16700408  1
  Ni  Ni11  1  0.33369706  0.00042944  0.33357907  1
  Ni  Ni12  1  0.33403022  0.33368661  1.00021162  1
  Ni  Ni13  1  0.50036717  0.50056744  0.16771123  1
  Ni  Ni14  1  0.33376404  0.33343390  0.33383574  1
  Ni  Ni15  1  0.33369132  0.66708298  1.00020778  1
  Ni  Ni16  1  0.50054957  0.83364725  0.16698569  1
  Ni  Ni17  1  0.33347356  0.66730943  0.33386051  1
  Ni  Ni18  1  0.66700483  0.00055758  1.00020996  1
  Ni  Ni19  1  0.83364938  0.16728586  0.16735588  1
  Ni  Ni20  1  0.66689448  0.00058343  0.33381216  1
  Ni  Ni21  1  0.66673189  0.33368526  0.00064624  1
  Ni  Ni22  1  0.83379419  0.50038498  0.16700263  1
  Ni  Ni23  1  0.66700102  0.33342525  0.33339262  1
  Ni  Ni24  1  0.66690628  0.66691326  0.99996309  1
  Ni  Ni25  1  0.83328379  0.83348245  0.16735969  1
  Ni  Ni26  1  0.66712536  0.66714528  0.33409911  1
  Ni  Ni27  1  0.16754267  0.16767290  0.50071128  1
  Ni  Ni28  1  0.00054926  0.00181001  0.66677982  1
  Ni  Ni29  1  0.16722849  0.16737175  0.83307414  1
  Ni  Ni30  1  0.16729853  0.49930885  0.49967514  1
  Ni  Ni31  1  0.00195782  0.33212396  0.66710430  1
  Ni  Ni32  1  0.16807346  0.49925072  0.83451628  1
  Ni  Ni33  1  0.16861010  0.83421156  0.49943906  1
  Cr  Cr34  1  1.00029257  0.66729040  0.66745508  1
  Ni  Ni35  1  0.16838004  0.83454658  0.83440589  1
  Ni  Ni36  1  0.49934946  0.16509032  0.49943169  1
  Ni  Ni37  1  0.33370749  0.00042460  0.66712523  1
  Ni  Ni38  1  0.49933330  0.16597456  0.83468621  1
  Fe  Fe39  1  0.49942613  0.50113312  0.49943947  1
  Ni  Ni40  1  0.33228268  0.33346160  0.66708497  1
  Ni  Ni41  1  0.49930749  0.50150509  0.83376362  1
  Ni  Ni42  1  0.50045395  0.83439835  0.50071634  1
  Ni  Ni43  1  0.33505978  0.66724551  0.66701940  1
  Ni  Ni44  1  0.50045642  0.83373128  0.83343466  1
  Ni  Ni45  1  0.83425057  0.16655626  0.49963358  1
  Ni  Ni46  1  0.66688951  0.99909987  0.66711732  1
  Ni  Ni47  1  0.83461480  0.16619483  0.83418344  1
  Ni  Ni48  1  0.83458405  0.50041729  0.49853337  1
  Cr  Cr49  1  0.66727310  0.33361187  0.66716824  1
  Ni  Ni50  1  0.83373503  0.50038249  0.83563112  1
  Ni  Ni51  1  0.83206612  0.83422731  0.49964747  1
  Ni  Ni52  1  0.66543236  0.66873409  0.66703850  1
  Ni  Ni53  1  0.83230849  0.83458539  0.83419582  1
" 