2755,Ni94Fe3Cr1_16,-239.044834347723, 177.94679747339,Ni94Fe3Cr1,"# generated using pymatgen
 data_Cr2FeNi51
_symmetry_space_group_name_H-M   'P 1'
_cell_length_a   7.46130689
_cell_length_b   7.46130689
_cell_length_c   10.55188140
_cell_angle_alpha   90.00000000
_cell_angle_beta   90.00000000
_cell_angle_gamma   90.00000000
_symmetry_Int_Tables_number   1
_chemical_formula_structural   Cr2FeNi51
_chemical_formula_sum   'Cr2 Fe1 Ni51'
_cell_volume   587.43484985
_cell_formula_units_Z   1
loop_
 _symmetry_equiv_pos_site_id
 _symmetry_equiv_pos_as_xyz
  1  'x, y, z'
loop_
 _atom_site_type_symbol
 _atom_site_label
 _atom_site_symmetry_multiplicity
 _atom_site_fract_x
 _atom_site_fract_y
 _atom_site_fract_z
 _atom_site_occupancy
  Ni  Ni0  1  0.00140590  0.00137233  0.99949499  1
  Ni  Ni1  1  0.16729213  0.16721858  0.16729805  1
  Ni  Ni2  1  1.00026449  0.00260289  0.33372782  1
  Ni  Ni3  1  0.00054750  0.33381028  0.00058221  1
  Ni  Ni4  1  0.16697949  0.49997112  0.16695570  1
  Ni  Ni5  1  1.00024948  0.33359306  0.33371553  1
  Ni  Ni6  1  0.00141490  0.66603125  0.99956439  1
  Ni  Ni7  1  0.16838683  0.83396396  0.16652272  1
  Ni  Ni8  1  0.00053460  0.66493385  0.33374570  1
  Ni  Ni9  1  0.33373129  1.00032267  0.00062267  1
  Ni  Ni10  1  0.50029241  0.16738953  0.16707114  1
  Ni  Ni11  1  0.33478282  0.00123302  0.33263289  1
  Ni  Ni12  1  0.33356785  0.33372927  0.00039471  1
  Ni  Ni13  1  0.50060506  0.49980858  0.16673524  1
  Ni  Ni14  1  0.33364597  0.33383600  0.33395073  1
  Ni  Ni15  1  0.33372957  0.66710500  1.00030559  1
  Ni  Ni16  1  0.49901182  0.83396229  0.16696710  1
  Ni  Ni17  1  0.33479158  0.66607456  0.33262003  1
  Ni  Ni18  1  0.66599969  0.00120107  0.99949842  1
  Ni  Ni19  1  0.83356865  0.16874077  0.16637709  1
  Ni  Ni20  1  0.66611720  0.00149220  0.33480559  1
  Ni  Ni21  1  0.66703092  0.33381872  0.00058944  1
  Ni  Ni22  1  0.83356551  0.49866839  0.16708857  1
  Ni  Ni23  1  0.66725925  0.33359440  0.33348224  1
  Ni  Ni24  1  0.66599940  0.66619447  0.99955903  1
  Cr  Cr25  1  0.83369275  0.83333018  0.16760328  1
  Ni  Ni26  1  0.66584094  0.66605370  0.33482851  1
  Ni  Ni27  1  0.16727166  0.16878071  0.50036394  1
  Ni  Ni28  1  0.99943953  0.00136224  0.66793216  1
  Ni  Ni29  1  0.16797423  0.16719192  0.83349535  1
  Ni  Ni30  1  0.16695633  0.49837261  0.50070673  1
  Ni  Ni31  1  0.00042396  0.33383820  0.66681220  1
  Ni  Ni32  1  0.16666402  0.49969518  0.83349585  1
  Cr  Cr33  1  0.16688677  0.83390228  0.50040109  1
  Ni  Ni34  1  0.99939168  0.66602645  0.66786647  1
  Ni  Ni35  1  0.16651102  0.83425005  0.83415123  1
  Ni  Ni36  1  0.50034103  0.16738751  0.50036747  1
  Ni  Ni37  1  0.33472620  0.00124642  0.66787089  1
  Ni  Ni38  1  0.49958102  0.16735835  0.83372567  1
  Ni  Ni39  1  0.50065533  0.49979786  0.50070605  1
  Ni  Ni40  1  0.33365803  0.33372368  0.66681387  1
  Ni  Ni41  1  0.50092492  0.49953867  0.83371589  1
  Ni  Ni42  1  0.50227697  0.83396626  0.50046508  1
  Ni  Ni43  1  0.33476468  0.66615791  0.66821417  1
  Ni  Ni44  1  0.50092115  0.83425308  0.83371881  1
  Ni  Ni45  1  0.83354465  0.16721933  0.50084183  1
  Ni  Ni46  1  0.66694497  1.00023567  0.66683817  1
  Fe  Fe47  1  0.83350506  0.16744611  0.83375240  1
  Ni  Ni48  1  0.83354499  0.50028495  0.50013787  1
  Ni  Ni49  1  0.66708195  0.33383914  0.66704364  1
  Ni  Ni50  1  0.83355937  0.50111273  0.83394934  1
  Ni  Ni51  1  0.83215415  0.83364666  0.50056081  1
  Ni  Ni52  1  0.66703297  0.66708981  0.66681208  1
  Ni  Ni53  1  0.83372911  0.83299789  0.83327531  1
" 