5192,Ni94Fe3Cr1_9,-239.031569594311, 177.791985418802,Ni94Fe3Cr1,"# generated using pymatgen
 data_Cr2FeNi51
_symmetry_space_group_name_H-M   'P 1'
_cell_length_a   7.46142638
_cell_length_b   7.46142638
_cell_length_c   10.55205038
_cell_angle_alpha   90.00000000
_cell_angle_beta   90.00000000
_cell_angle_gamma   90.00000000
_symmetry_Int_Tables_number   1
_chemical_formula_structural   Cr2FeNi51
_chemical_formula_sum   'Cr2 Fe1 Ni51'
_cell_volume   587.46307232
_cell_formula_units_Z   1
loop_
 _symmetry_equiv_pos_site_id
 _symmetry_equiv_pos_as_xyz
  1  'x, y, z'
loop_
 _atom_site_type_symbol
 _atom_site_label
 _atom_site_symmetry_multiplicity
 _atom_site_fract_x
 _atom_site_fract_y
 _atom_site_fract_z
 _atom_site_occupancy
  Ni  Ni0  1  0.00175887  0.00100709  0.00122788  1
  Ni  Ni1  1  0.16725682  0.16719235  0.16729638  1
  Ni  Ni2  1  0.00046207  1.00032083  0.33342008  1
  Ni  Ni3  1  0.00068726  0.33409784  1.00018606  1
  Ni  Ni4  1  0.16609623  0.49913581  0.16624656  1
  Ni  Ni5  1  1.00030315  0.33378010  0.33342082  1
  Ni  Ni6  1  0.00064913  0.66606110  0.00145173  1
  Ni  Ni7  1  0.16594399  0.83477652  0.16598461  1
  Ni  Ni8  1  0.99876199  0.66702804  0.33373234  1
  Ni  Ni9  1  0.33371002  0.00099261  0.00040761  1
  Ni  Ni10  1  0.50016322  0.16719235  0.16729638  1
  Ni  Ni11  1  0.33371002  0.00186520  0.33373348  1
  Ni  Ni12  1  0.33371002  0.33291029  0.00063855  1
  Ni  Ni13  1  0.50132381  0.49913581  0.16624656  1
  Ni  Ni14  1  0.33371002  0.33208285  0.33373110  1
  Fe  Fe15  1  0.33371002  0.66686130  1.00004658  1
  Ni  Ni16  1  0.50147605  0.83477652  0.16598461  1
  Cr  Cr17  1  0.33371002  0.66716074  0.33330788  1
  Ni  Ni18  1  0.66566117  0.00100709  0.00122788  1
  Ni  Ni19  1  0.83371002  0.16702459  0.16654393  1
  Ni  Ni20  1  0.66695797  1.00032083  0.33342008  1
  Ni  Ni21  1  0.66673278  0.33409784  1.00018606  1
  Ni  Ni22  1  0.83371002  0.50045923  0.16708374  1
  Ni  Ni23  1  0.66711689  0.33378010  0.33342082  1
  Ni  Ni24  1  0.66677090  0.66606110  0.00145173  1
  Ni  Ni25  1  0.83371002  0.83363850  0.16750645  1
  Ni  Ni26  1  0.66865805  0.66702804  0.33373234  1
  Ni  Ni27  1  0.16715338  0.16718723  0.50018497  1
  Ni  Ni28  1  0.00152250  0.00133528  0.66643423  1
  Ni  Ni29  1  0.16734345  0.16721665  0.83363814  1
  Ni  Ni30  1  0.16627509  0.49930652  0.50127130  1
  Ni  Ni31  1  0.00039722  0.33380994  0.66752641  1
  Ni  Ni32  1  0.16711752  0.50009686  0.83367111  1
  Ni  Ni33  1  0.16608524  0.83462859  0.50151997  1
  Ni  Ni34  1  0.00138049  0.66601289  0.66588128  1
  Ni  Ni35  1  0.16855895  0.83378057  0.83370664  1
  Ni  Ni36  1  0.50026666  0.16718723  0.50018497  1
  Ni  Ni37  1  0.33371002  1.00035366  0.66696097  1
  Ni  Ni38  1  0.50007659  0.16721665  0.83363814  1
  Ni  Ni39  1  0.50114495  0.49930652  0.50127130  1
  Ni  Ni40  1  0.33371002  0.33366254  0.66673553  1
  Ni  Ni41  1  0.50030252  0.50009686  0.83367111  1
  Ni  Ni42  1  0.50133480  0.83462859  0.50151997  1
  Ni  Ni43  1  0.33371002  0.66712345  0.66807341  1
  Ni  Ni44  1  0.49886109  0.83378057  0.83370664  1
  Ni  Ni45  1  0.83371002  0.16701749  0.50064666  1
  Ni  Ni46  1  0.66589754  0.00133528  0.66643423  1
  Ni  Ni47  1  0.83371002  0.16867524  0.83394718  1
  Ni  Ni48  1  0.83371002  0.50036282  0.50041171  1
  Ni  Ni49  1  0.66702282  0.33380994  0.66752641  1
  Ni  Ni50  1  0.83371002  0.49897451  0.83364856  1
  Ni  Ni51  1  0.83371002  0.83374547  0.49998497  1
  Ni  Ni52  1  0.66603955  0.66601289  0.66588128  1
  Cr  Cr53  1  0.83371002  0.83388213  0.83333171  1
" 