2415,Ni94Fe2Cr2_9,-239.047176856177, 177.955532151262,Ni94Fe2Cr2,"# generated using pymatgen
 data_Cr2FeNi51
_symmetry_space_group_name_H-M   'P 1'
_cell_length_a   7.46118028
_cell_length_b   7.46118028
_cell_length_c   10.55170234
_cell_angle_alpha   90.00000000
_cell_angle_beta   90.00000000
_cell_angle_gamma   90.00000000
_symmetry_Int_Tables_number   1
_chemical_formula_structural   Cr2FeNi51
_chemical_formula_sum   'Cr2 Fe1 Ni51'
_cell_volume   587.40494605
_cell_formula_units_Z   1
loop_
 _symmetry_equiv_pos_site_id
 _symmetry_equiv_pos_as_xyz
  1  'x, y, z'
loop_
 _atom_site_type_symbol
 _atom_site_label
 _atom_site_symmetry_multiplicity
 _atom_site_fract_x
 _atom_site_fract_y
 _atom_site_fract_z
 _atom_site_occupancy
  Ni  Ni0  1  1.00033687  1.00038214  0.00080992  1
  Ni  Ni1  1  0.16773100  0.16740521  0.16726246  1
  Ni  Ni2  1  0.00134194  0.99935174  0.33241440  1
  Ni  Ni3  1  0.00133925  0.33271380  0.99943616  1
  Ni  Ni4  1  0.16808780  0.50054282  0.16703935  1
  Ni  Ni5  1  0.00230300  0.33370324  0.33380923  1
  Ni  Ni6  1  0.00118116  0.66809312  0.99943087  1
  Ni  Ni7  1  0.16789652  0.83323860  0.16704154  1
  Ni  Ni8  1  0.00125085  0.66809989  0.33485197  1
  Ni  Ni9  1  0.33370832  0.00053872  1.00025760  1
  Ni  Ni10  1  0.50022841  0.16611708  0.16726703  1
  Ni  Ni11  1  0.33371068  0.00045957  0.33403285  1
  Ni  Ni12  1  0.33363698  0.33357967  0.00054074  1
  Fe  Fe13  1  0.49888740  0.50058502  0.16694393  1
  Ni  Ni14  1  0.33364832  0.33366359  0.33373919  1
  Ni  Ni15  1  0.33362869  0.66706868  0.00053164  1
  Ni  Ni16  1  0.50005381  0.83455867  0.16703616  1
  Ni  Ni17  1  0.33364557  0.66704937  0.33351107  1
  Ni  Ni18  1  0.66712372  1.00038056  0.00050071  1
  Ni  Ni19  1  0.83316849  0.16604257  0.16683845  1
  Ni  Ni20  1  0.66614030  0.99938826  0.33274582  1
  Ni  Ni21  1  0.66612259  0.33260436  0.99943538  1
  Cr  Cr22  1  0.83459483  0.50041699  0.16726653  1
  Ni  Ni23  1  0.66509307  0.33364574  0.33375728  1
  Ni  Ni24  1  0.66628812  0.66821149  0.99942161  1
  Ni  Ni25  1  0.83316579  0.83478450  0.16727366  1
  Ni  Ni26  1  0.66622020  0.66821289  0.33485485  1
  Ni  Ni27  1  0.16905776  0.16716113  0.50011410  1
  Ni  Ni28  1  0.00129516  0.99934414  0.66798076  1
  Ni  Ni29  1  0.16744834  0.16715341  0.83380187  1
  Ni  Ni30  1  0.16713041  0.50056367  0.50024359  1
  Ni  Ni31  1  0.00144382  0.33462907  0.66796539  1
  Ni  Ni32  1  0.16711179  0.50054185  0.83389724  1
  Ni  Ni33  1  0.16764017  0.83345183  0.50012017  1
  Ni  Ni34  1  1.00033438  0.66718512  0.66688853  1
  Ni  Ni35  1  0.16760049  0.83348678  0.83401602  1
  Ni  Ni36  1  0.49868199  0.16684629  0.50045451  1
  Ni  Ni37  1  0.33361252  0.00046631  0.66688960  1
  Ni  Ni38  1  0.50025975  0.16685082  0.83346690  1
  Ni  Ni39  1  0.50023579  0.50056404  0.49954730  1
  Ni  Ni40  1  0.33385634  0.33392700  0.66688790  1
  Ni  Ni41  1  0.50025907  0.50053958  0.83459013  1
  Ni  Ni42  1  0.50006917  0.83376599  0.50045678  1
  Ni  Ni43  1  0.33385503  0.66678478  0.66711947  1
  Ni  Ni44  1  0.50009926  0.83378953  0.83368736  1
  Cr  Cr45  1  0.83354594  0.16721964  0.49995922  1
  Ni  Ni46  1  0.66628330  0.99935226  0.66797105  1
  Ni  Ni47  1  0.83348393  0.16732103  0.83445766  1
  Ni  Ni48  1  0.83377706  0.50194844  0.50064350  1
  Ni  Ni49  1  0.66589056  0.33486478  0.66795764  1
  Ni  Ni50  1  0.83377034  0.50037807  0.83327346  1
  Ni  Ni51  1  0.83347979  0.83184098  0.49987649  1
  Ni  Ni52  1  0.66699102  0.66694169  0.66688793  1
  Ni  Ni53  1  0.83348542  0.83347577  0.83402730  1
" 