4923,Ni94Fe3Cr1_17,-239.069148621377, 178.347174176608,Ni94Fe3Cr1,"# generated using pymatgen
 data_Cr2FeNi51
_symmetry_space_group_name_H-M   'P 1'
_cell_length_a   7.46129646
_cell_length_b   7.46129646
_cell_length_c   10.55186665
_cell_angle_alpha   90.00000000
_cell_angle_beta   90.00000000
_cell_angle_gamma   90.00000000
_symmetry_Int_Tables_number   1
_chemical_formula_structural   Cr2FeNi51
_chemical_formula_sum   'Cr2 Fe1 Ni51'
_cell_volume   587.43238720
_cell_formula_units_Z   1
loop_
 _symmetry_equiv_pos_site_id
 _symmetry_equiv_pos_as_xyz
  1  'x, y, z'
loop_
 _atom_site_type_symbol
 _atom_site_label
 _atom_site_symmetry_multiplicity
 _atom_site_fract_x
 _atom_site_fract_y
 _atom_site_fract_z
 _atom_site_occupancy
  Ni  Ni0  1  0.99903965  0.00169789  0.99997274  1
  Ni  Ni1  1  0.16705207  0.16861154  0.16715807  1
  Ni  Ni2  1  0.00043857  0.00202192  0.33464889  1
  Ni  Ni3  1  0.00068776  0.33385968  0.00050328  1
  Ni  Ni4  1  0.16705207  0.49873905  0.16690640  1
  Ni  Ni5  1  0.00148568  0.33391329  0.33353402  1
  Ni  Ni6  1  0.99920570  0.66557913  0.99973651  1
  Cr  Cr7  1  0.16705207  0.83380538  0.16747044  1
  Ni  Ni8  1  0.99898562  0.66528696  0.33464741  1
  Ni  Ni9  1  0.33506448  0.00169789  0.99997274  1
  Ni  Ni10  1  0.49939586  0.16818611  0.16606078  1
  Ni  Ni11  1  0.33366556  0.00202192  0.33464889  1
  Ni  Ni12  1  0.33341637  0.33385968  0.00050328  1
  Ni  Ni13  1  0.50058248  0.50028719  0.16721685  1
  Ni  Ni14  1  0.33261845  0.33391329  0.33353402  1
  Ni  Ni15  1  0.33489843  0.66557913  0.99973651  1
  Ni  Ni16  1  0.50099629  0.83275622  0.16604982  1
  Ni  Ni17  1  0.33511851  0.66528696  0.33464741  1
  Ni  Ni18  1  0.66705207  1.00025239  1.00031779  1
  Ni  Ni19  1  0.83470827  0.16818611  0.16606078  1
  Cr  Cr20  1  0.66705207  0.99938124  0.33354347  1
  Ni  Ni21  1  0.66705207  0.33369225  0.00120570  1
  Ni  Ni22  1  0.83352165  0.50028719  0.16721685  1
  Fe  Fe23  1  0.66705207  0.33509099  0.33380923  1
  Ni  Ni24  1  0.66705207  0.66725777  0.00073257  1
  Ni  Ni25  1  0.83310784  0.83275622  0.16604982  1
  Ni  Ni26  1  0.66705207  0.66620004  0.33353767  1
  Ni  Ni27  1  0.16705207  0.16692650  0.50004706  1
  Ni  Ni28  1  1.00008955  0.00065321  0.66653125  1
  Ni  Ni29  1  0.16705207  0.16676479  0.83393377  1
  Ni  Ni30  1  0.16705207  0.50043579  0.50030513  1
  Ni  Ni31  1  0.00074186  0.33386248  0.66711111  1
  Ni  Ni32  1  0.16705207  0.50052577  0.83393166  1
  Ni  Ni33  1  0.16705207  0.83379737  0.50017886  1
  Ni  Ni34  1  1.00026215  0.66663079  0.66676646  1
  Ni  Ni35  1  0.16705207  0.83386406  0.83348910  1
  Ni  Ni36  1  0.49934315  0.16815580  0.50140791  1
  Ni  Ni37  1  0.33401458  0.00065321  0.66653125  1
  Ni  Ni38  1  0.50064357  0.16734211  0.83370019  1
  Ni  Ni39  1  0.50054747  0.50033005  0.50024479  1
  Ni  Ni40  1  0.33336227  0.33386248  0.66711111  1
  Ni  Ni41  1  0.50080431  0.50011170  0.83370129  1
  Ni  Ni42  1  0.49929157  0.83275671  0.50116863  1
  Ni  Ni43  1  0.33384198  0.66663079  0.66676646  1
  Ni  Ni44  1  0.50022816  0.83370380  0.83393320  1
  Ni  Ni45  1  0.83476098  0.16815580  0.50140791  1
  Ni  Ni46  1  0.66705207  1.00019128  0.66730723  1
  Ni  Ni47  1  0.83346056  0.16734211  0.83370019  1
  Ni  Ni48  1  0.83355667  0.50033005  0.50024479  1
  Ni  Ni49  1  0.66705207  0.33369682  0.66617568  1
  Ni  Ni50  1  0.83329982  0.50011170  0.83370129  1
  Ni  Ni51  1  0.83481256  0.83275671  0.50116863  1
  Ni  Ni52  1  0.66705207  0.66730841  0.66689143  1
  Ni  Ni53  1  0.83387597  0.83370380  0.83393320  1
" 