6593,Ni94Fe2Cr2_6,-239.011101817729, 177.762425918096,Ni94Fe2Cr2,"# generated using pymatgen
 data_Cr2FeNi51
_symmetry_space_group_name_H-M   'P 1'
_cell_length_a   7.46175419
_cell_length_b   7.46175419
_cell_length_c   10.55251398
_cell_angle_alpha   90.00000000
_cell_angle_beta   90.00000000
_cell_angle_gamma   90.00000000
_symmetry_Int_Tables_number   1
_chemical_formula_structural   Cr2FeNi51
_chemical_formula_sum   'Cr2 Fe1 Ni51'
_cell_volume   587.54050608
_cell_formula_units_Z   1
loop_
 _symmetry_equiv_pos_site_id
 _symmetry_equiv_pos_as_xyz
  1  'x, y, z'
loop_
 _atom_site_type_symbol
 _atom_site_label
 _atom_site_symmetry_multiplicity
 _atom_site_fract_x
 _atom_site_fract_y
 _atom_site_fract_z
 _atom_site_occupancy
  Cr  Cr0  1  0.00065024  0.00035470  0.99996107  1
  Ni  Ni1  1  0.16859687  0.16969984  0.16702137  1
  Cr  Cr2  1  0.00065024  0.00035470  0.33408167  1
  Ni  Ni3  1  0.00040089  0.33526819  0.00055949  1
  Ni  Ni4  1  0.16753056  0.50035470  0.16702137  1
  Ni  Ni5  1  0.00040089  0.33526819  0.33348325  1
  Ni  Ni6  1  0.00040089  0.66544121  0.00055949  1
  Ni  Ni7  1  0.16859687  0.83100956  0.16702137  1
  Ni  Ni8  1  0.00040089  0.66544121  0.33348325  1
  Ni  Ni9  1  0.33535986  0.00035470  0.00079900  1
  Ni  Ni10  1  0.50090751  0.16740846  0.16702137  1
  Ni  Ni11  1  0.33535986  0.00035470  0.33324374  1
  Ni  Ni12  1  0.33401767  0.33399430  1.00026802  1
  Ni  Ni13  1  0.49945691  0.50035470  0.16702137  1
  Ni  Ni14  1  0.33401767  0.33399430  0.33377472  1
  Ni  Ni15  1  0.33401767  0.66671510  1.00026802  1
  Ni  Ni16  1  0.50090751  0.83330095  0.16702137  1
  Ni  Ni17  1  0.33401767  0.66671510  0.33377472  1
  Ni  Ni18  1  0.66543330  0.00035470  0.00049124  1
  Ni  Ni19  1  0.83161509  0.16834396  0.16702137  1
  Ni  Ni20  1  0.66543330  0.00035470  0.33355150  1
  Ni  Ni21  1  0.66659221  0.33390365  1.00028208  1
  Fe  Fe22  1  0.83332472  0.50035470  0.16702137  1
  Ni  Ni23  1  0.66659221  0.33390365  0.33376066  1
  Ni  Ni24  1  0.66659221  0.66680575  1.00028208  1
  Ni  Ni25  1  0.83161509  0.83236545  0.16702137  1
  Ni  Ni26  1  0.66659221  0.66680575  0.33376066  1
  Ni  Ni27  1  0.16784563  0.16834463  0.50098592  1
  Ni  Ni28  1  0.00046943  0.00035470  0.66702137  1
  Ni  Ni29  1  0.16784563  0.16834463  0.83305682  1
  Ni  Ni30  1  0.16686551  0.50035470  0.50022358  1
  Ni  Ni31  1  1.00022942  0.33376008  0.66702137  1
  Ni  Ni32  1  0.16686551  0.50035470  0.83381916  1
  Ni  Ni33  1  0.16784563  0.83236477  0.50098592  1
  Ni  Ni34  1  1.00022942  0.66694933  0.66702137  1
  Ni  Ni35  1  0.16784563  0.83236477  0.83305682  1
  Ni  Ni36  1  0.50060104  0.16704070  0.49987549  1
  Ni  Ni37  1  0.33363157  0.00035470  0.66702137  1
  Ni  Ni38  1  0.50060104  0.16704070  0.83416725  1
  Ni  Ni39  1  0.50029207  0.50035470  0.50045246  1
  Ni  Ni40  1  0.33398162  0.33386676  0.66702137  1
  Ni  Ni41  1  0.50029207  0.50035470  0.83359028  1
  Ni  Ni42  1  0.50060104  0.83366871  0.49987549  1
  Ni  Ni43  1  0.33398162  0.66684265  0.66702137  1
  Ni  Ni44  1  0.50060104  0.83366871  0.83416725  1
  Ni  Ni45  1  0.83263536  0.16801548  0.50129887  1
  Ni  Ni46  1  0.66695853  0.00035470  0.66702137  1
  Ni  Ni47  1  0.83263536  0.16801548  0.83274387  1
  Ni  Ni48  1  0.83391665  0.50035470  0.49952198  1
  Ni  Ni49  1  0.66685739  0.33410404  0.66702137  1
  Ni  Ni50  1  0.83391665  0.50035470  0.83452076  1
  Ni  Ni51  1  0.83263536  0.83269393  0.50129887  1
  Ni  Ni52  1  0.66685739  0.66660536  0.66702137  1
  Ni  Ni53  1  0.83263536  0.83269393  0.83274387  1
" 