3404,Ni94Fe2Cr2_19,-239.047176856177, 177.95553215231,Ni94Fe2Cr2,"# generated using pymatgen
 data_Cr2FeNi51
_symmetry_space_group_name_H-M   'P 1'
_cell_length_a   7.46118028
_cell_length_b   7.46118028
_cell_length_c   10.55170234
_cell_angle_alpha   90.00000000
_cell_angle_beta   90.00000000
_cell_angle_gamma   90.00000000
_symmetry_Int_Tables_number   1
_chemical_formula_structural   Cr2FeNi51
_chemical_formula_sum   'Cr2 Fe1 Ni51'
_cell_volume   587.40494605
_cell_formula_units_Z   1
loop_
 _symmetry_equiv_pos_site_id
 _symmetry_equiv_pos_as_xyz
  1  'x, y, z'
loop_
 _atom_site_type_symbol
 _atom_site_label
 _atom_site_symmetry_multiplicity
 _atom_site_fract_x
 _atom_site_fract_y
 _atom_site_fract_z
 _atom_site_occupancy
  Ni  Ni0  1  1.00000470  1.00029963  0.00046853  1
  Ni  Ni1  1  0.16711618  0.16707090  0.16747659  1
  Ni  Ni2  1  0.99972204  1.00004784  0.33392913  1
  Ni  Ni3  1  0.99985256  0.33396626  0.00068269  1
  Ni  Ni4  1  0.16627189  0.49935993  0.16609754  1
  Ni  Ni5  1  0.99955653  0.33421445  0.33370820  1
  Ni  Ni6  1  1.00034126  0.66691120  0.00056391  1
  Ni  Ni7  1  0.16611380  0.83473924  0.16610283  1
  Ni  Ni8  1  0.99936524  0.66691023  0.33370602  1
  Ni  Ni9  1  0.33396912  1.00013202  0.00112432  1
  Ni  Ni10  1  0.50032933  0.16707248  0.16716737  1
  Ni  Ni11  1  0.33428456  0.00141048  0.33350512  1
  Ni  Ni12  1  0.33396763  0.33397728  0.00069397  1
  Ni  Ni13  1  0.50116493  0.49924156  0.16608828  1
  Ni  Ni14  1  0.33428726  0.33266855  0.33394033  1
  Ni  Ni15  1  0.33368271  0.66707497  0.99994012  1
  Ni  Ni16  1  0.50133046  0.83484869  0.16610205  1
  Cr  Cr17  1  0.33285821  0.66703606  0.33393320  1
  Ni  Ni18  1  0.66719329  0.00060222  1.00013357  1
  Ni  Ni19  1  0.83374473  0.16691432  0.16692426  1
  Ni  Ni20  1  0.66722463  0.00133597  0.33393370  1
  Ni  Ni21  1  0.66735379  0.33366352  1.00035403  1
  Ni  Ni22  1  0.83382436  0.50038437  0.16719831  1
  Ni  Ni23  1  0.66739924  0.33289438  0.33370283  1
  Ni  Ni24  1  0.66719398  0.66691346  0.00125679  1
  Ni  Ni25  1  0.83381606  0.83387338  0.16720741  1
  Fe  Fe26  1  0.66856565  0.66686803  0.33361060  1
  Ni  Ni27  1  0.16611111  0.16810131  0.49908106  1
  Ni  Ni28  1  0.99839529  1.00029192  0.66678077  1
  Ni  Ni29  1  0.16615789  0.16810890  0.83464743  1
  Ni  Ni30  1  0.16620219  0.49935316  0.50151864  1
  Ni  Ni31  1  0.99981288  0.33400122  0.66678684  1
  Ni  Ni32  1  0.16711867  0.50026792  0.83355520  1
  Ni  Ni33  1  0.16515004  0.83374981  0.50047590  1
  Ni  Ni34  1  1.00032264  0.66688937  0.66691025  1
  Ni  Ni35  1  0.16600923  0.83282398  0.83463206  1
  Ni  Ni36  1  0.50131275  0.16806479  0.49941249  1
  Cr  Cr37  1  0.33390711  1.00023341  0.66662588  1
  Ni  Ni38  1  0.50116975  0.16810079  0.83463771  1
  Ni  Ni39  1  0.50123285  0.49924016  0.50152152  1
  Ni  Ni40  1  0.33397325  0.33561207  0.66654315  1
  Ni  Ni41  1  0.50046202  0.50051136  0.83355459  1
  Ni  Ni42  1  0.50235997  0.83380731  0.50042394  1
  Ni  Ni43  1  0.33367598  0.66550461  0.66731017  1
  Ni  Ni44  1  0.50156248  0.83258827  0.83462431  1
  Ni  Ni45  1  0.83374237  0.16699347  0.50069952  1
  Ni  Ni46  1  0.66877106  0.00060676  0.66712117  1
  Ni  Ni47  1  0.83384053  0.16698674  0.83355627  1
  Ni  Ni48  1  0.83380748  0.50040368  0.50017773  1
  Ni  Ni49  1  0.66738387  0.33368706  0.66712345  1
  Ni  Ni50  1  0.83359802  0.50066827  0.83378614  1
  Ni  Ni51  1  0.83380473  0.83378946  0.50040586  1
  Ni  Ni52  1  0.66721725  0.66688901  0.66621397  1
  Ni  Ni53  1  0.83359671  0.83352605  0.83355456  1
" 