7396,Ni94Fe5Cr0_11,-239.376622003393, 180.887002870579,Ni94Fe5Cr0,"# generated using pymatgen
 data_CrFeNi25
_symmetry_space_group_name_H-M   'P 1'
_cell_length_a   7.45561483
_cell_length_b   7.45561483
_cell_length_c   10.54383161
_cell_angle_alpha   90.00000000
_cell_angle_beta   90.00000000
_cell_angle_gamma   90.00000000
_symmetry_Int_Tables_number   1
_chemical_formula_structural   CrFeNi25
_chemical_formula_sum   'Cr2 Fe2 Ni50'
_cell_volume   586.09145417
_cell_formula_units_Z   2
loop_
 _symmetry_equiv_pos_site_id
 _symmetry_equiv_pos_as_xyz
  1  'x, y, z'
loop_
 _atom_site_type_symbol
 _atom_site_label
 _atom_site_symmetry_multiplicity
 _atom_site_fract_x
 _atom_site_fract_y
 _atom_site_fract_z
 _atom_site_occupancy
  Ni  Ni0  1  0.00189660  0.00166395  0.00170130  1
  Ni  Ni1  1  0.16612560  0.16775368  0.16656430  1
  Ni  Ni2  1  0.99917755  0.00084248  0.33416864  1
  Ni  Ni3  1  1.00060481  0.33405857  1.00055958  1
  Ni  Ni4  1  0.16739512  0.50103490  0.16783232  1
  Ni  Ni5  1  1.00065316  0.33425220  0.33410049  1
  Ni  Ni6  1  0.00171806  0.66657482  0.00151507  1
  Ni  Ni7  1  0.16725389  0.83351322  0.16661917  1
  Ni  Ni8  1  1.00073558  0.66720295  0.33421054  1
  Ni  Ni9  1  0.33410699  1.00056527  1.00037464  1
  Ni  Ni10  1  0.50204974  0.16775330  0.16702906  1
  Cr  Cr11  1  0.33393179  0.00079811  0.33414552  1
  Ni  Ni12  1  0.33410722  0.33386573  0.00101722  1
  Ni  Ni13  1  0.50101917  0.50127529  0.16759224  1
  Ni  Ni14  1  0.33400106  0.33589004  0.33399029  1
  Ni  Ni15  1  0.33409519  0.66786888  1.00074252  1
  Ni  Ni16  1  0.50116613  0.83327486  0.16638092  1
  Ni  Ni17  1  0.33407889  0.66573475  0.33410032  1
  Ni  Ni18  1  0.66629824  0.00167410  0.00170214  1
  Ni  Ni19  1  0.83412660  0.16760411  0.16740896  1
  Ni  Ni20  1  0.66912224  1.00076671  0.33409999  1
  Ni  Ni21  1  0.66758808  0.33404672  1.00055949  1
  Ni  Ni22  1  0.83388547  0.50014055  0.16741429  1
  Ni  Ni23  1  0.66764540  0.33432731  0.33403254  1
  Ni  Ni24  1  0.66648842  0.66657654  0.00151606  1
  Fe  Fe25  1  0.83410331  0.83414407  0.16779342  1
  Ni  Ni26  1  0.66748730  0.66720582  0.33416995  1
  Ni  Ni27  1  0.16573338  0.16797594  0.50139871  1
  Ni  Ni28  1  0.00179067  0.00154042  0.66642598  1
  Ni  Ni29  1  0.16732305  0.16734929  0.83434061  1
  Ni  Ni30  1  0.16783789  0.50059177  0.50036788  1
  Ni  Ni31  1  1.00059030  0.33407518  0.66764114  1
  Ni  Ni32  1  0.16757111  0.50063585  0.83409983  1
  Ni  Ni33  1  0.16686625  0.83373454  0.50182265  1
  Ni  Ni34  1  0.00160942  0.66668310  0.66656981  1
  Ni  Ni35  1  0.16936414  0.83431485  0.83386059  1
  Fe  Fe36  1  0.50161851  0.16831499  0.50162120  1
  Ni  Ni37  1  0.33400137  1.00044285  0.66789556  1
  Ni  Ni38  1  0.50085066  0.16734947  0.83387575  1
  Ni  Ni39  1  0.50079807  0.50166154  0.50036733  1
  Ni  Ni40  1  0.33400020  0.33397255  0.66729319  1
  Ni  Ni41  1  0.50084394  0.50087776  0.83434121  1
  Ni  Ni42  1  0.50177052  0.83266957  0.50182290  1
  Ni  Ni43  1  0.33407846  0.66788604  0.66745761  1
  Ni  Ni44  1  0.49905179  0.83407329  0.83410134  1
  Ni  Ni45  1  0.83472630  0.16700353  0.50079216  1
  Ni  Ni46  1  0.66650587  0.00146632  0.66649304  1
  Ni  Ni47  1  0.83412754  0.16914157  0.83410193  1
  Ni  Ni48  1  0.83366496  0.50053221  0.50102691  1
  Ni  Ni49  1  0.66771032  0.33415168  0.66771055  1
  Ni  Ni50  1  0.83388517  0.49883600  0.83386042  1
  Ni  Ni51  1  0.83366438  0.83476539  0.49995895  1
  Ni  Ni52  1  0.66661354  0.66668626  0.66661055  1
  Cr  Cr53  1  0.83394362  0.83426213  0.83420423  1
" 