8673,Ni94Fe5Cr0_18,-239.334265010981, 180.503377666394,Ni94Fe5Cr0,"# generated using pymatgen
 data_CrFeNi25
_symmetry_space_group_name_H-M   'P 1'
_cell_length_a   7.45633286
_cell_length_b   7.45633286
_cell_length_c   10.54484706
_cell_angle_alpha   90.00000000
_cell_angle_beta   90.00000000
_cell_angle_gamma   90.00000000
_symmetry_Int_Tables_number   1
_chemical_formula_structural   CrFeNi25
_chemical_formula_sum   'Cr2 Fe2 Ni50'
_cell_volume   586.26080467
_cell_formula_units_Z   2
loop_
 _symmetry_equiv_pos_site_id
 _symmetry_equiv_pos_as_xyz
  1  'x, y, z'
loop_
 _atom_site_type_symbol
 _atom_site_label
 _atom_site_symmetry_multiplicity
 _atom_site_fract_x
 _atom_site_fract_y
 _atom_site_fract_z
 _atom_site_occupancy
  Cr  Cr0  1  0.00084430  1.00038950  0.00093770  1
  Ni  Ni1  1  0.16818183  0.16816567  0.16820317  1
  Ni  Ni2  1  0.00088030  1.00055298  0.33445235  1
  Ni  Ni3  1  1.00060440  0.33585148  1.00036465  1
  Ni  Ni4  1  0.16716061  0.50071940  0.16671156  1
  Ni  Ni5  1  1.00070992  0.33404346  0.33426828  1
  Ni  Ni6  1  1.00054435  0.66574766  0.00078542  1
  Ni  Ni7  1  0.16819239  0.83326990  0.16820381  1
  Ni  Ni8  1  1.00065058  0.66755933  0.33384702  1
  Ni  Ni9  1  0.33580839  0.00079183  1.00071235  1
  Ni  Ni10  1  0.50050829  0.16736862  0.16693485  1
  Ni  Ni11  1  0.33387533  0.00079249  0.33384694  1
  Ni  Ni12  1  0.33451081  0.33405620  1.00060406  1
  Ni  Ni13  1  0.50073824  0.50072438  0.16740849  1
  Ni  Ni14  1  0.33422595  0.33398381  0.33421161  1
  Ni  Ni15  1  0.33433093  0.66730732  1.00032365  1
  Ni  Ni16  1  0.50050395  0.83406256  0.16693477  1
  Ni  Ni17  1  0.33404554  0.66737945  0.33449124  1
  Ni  Ni18  1  0.66548371  0.00073266  1.00025537  1
  Ni  Ni19  1  0.83346493  0.16839964  0.16796446  1
  Ni  Ni20  1  0.66739963  0.00073317  0.33426829  1
  Ni  Ni21  1  0.66704112  0.33437461  1.00065858  1
  Ni  Ni22  1  0.83425614  0.50071504  0.16717403  1
  Ni  Ni23  1  0.66721986  0.33421342  0.33408398  1
  Ni  Ni24  1  0.66728030  0.66704831  1.00053112  1
  Ni  Ni25  1  0.83345871  0.83304055  0.16796534  1
  Ni  Ni26  1  0.66745925  0.66720871  0.33421149  1
  Ni  Ni27  1  0.16736412  0.16759002  0.50090498  1
  Ni  Ni28  1  0.00126176  1.00015449  0.66722881  1
  Ni  Ni29  1  0.16816033  0.16778136  0.83305204  1
  Ni  Ni30  1  0.16727999  0.50038791  0.50129498  1
  Ni  Ni31  1  0.00274093  0.33415961  0.66752411  1
  Fe  Fe32  1  0.16705934  0.50039237  0.83432693  1
  Ni  Ni33  1  0.16728352  0.83417875  0.50059654  1
  Ni  Ni34  1  1.00011860  0.66784261  0.66752336  1
  Ni  Ni35  1  0.16808296  0.83398533  0.83335711  1
  Ni  Ni36  1  0.49972496  0.16679380  0.50011399  1
  Ni  Ni37  1  0.33371504  0.00122099  0.66759529  1
  Ni  Ni38  1  0.49950714  0.16679360  0.83510247  1
  Ni  Ni39  1  0.50004385  0.50141809  0.49980304  1
  Ni  Ni40  1  0.33241419  0.33327470  0.66734192  1
  Ni  Ni41  1  0.50065237  0.50141598  0.83493877  1
  Ni  Ni42  1  0.50083687  0.83394497  0.50106984  1
  Fe  Fe43  1  0.33403424  0.66795970  0.66710215  1
  Ni  Ni44  1  0.50061345  0.83394681  0.83414894  1
  Ni  Ni45  1  0.83506668  0.16679787  0.50015051  1
  Ni  Ni46  1  0.66717948  0.99859629  0.66763170  1
  Ni  Ni47  1  0.83448675  0.16781826  0.83404119  1
  Ni  Ni48  1  0.83483101  0.50149759  0.49987656  1
  Cr  Cr49  1  0.66695435  0.33427979  0.66700845  1
  Ni  Ni50  1  0.83444764  0.50149474  0.83510156  1
  Ni  Ni51  1  0.83403518  0.83385938  0.50114377  1
  Ni  Ni52  1  0.66806454  0.66914029  0.66741388  1
  Ni  Ni53  1  0.83345992  0.83284154  0.83305150  1
" 