5648,Ni94Fe3Cr1_1,-239.064218728567, 178.097416121529,Ni94Fe3Cr1,"# generated using pymatgen
 data_Cr2FeNi51
_symmetry_space_group_name_H-M   'P 1'
_cell_length_a   7.46118164
_cell_length_b   7.46118164
_cell_length_c   10.55170427
_cell_angle_alpha   90.00000000
_cell_angle_beta   90.00000000
_cell_angle_gamma   90.00000000
_symmetry_Int_Tables_number   1
_chemical_formula_structural   Cr2FeNi51
_chemical_formula_sum   'Cr2 Fe1 Ni51'
_cell_volume   587.40526762
_cell_formula_units_Z   1
loop_
 _symmetry_equiv_pos_site_id
 _symmetry_equiv_pos_as_xyz
  1  'x, y, z'
loop_
 _atom_site_type_symbol
 _atom_site_label
 _atom_site_symmetry_multiplicity
 _atom_site_fract_x
 _atom_site_fract_y
 _atom_site_fract_z
 _atom_site_occupancy
  Ni  Ni0  1  0.99931373  0.00153020  0.00107021  1
  Ni  Ni1  1  0.16706825  0.16690477  0.16677672  1
  Ni  Ni2  1  1.00036579  0.00120542  0.33393970  1
  Ni  Ni3  1  0.00062822  0.33381746  1.00020142  1
  Ni  Ni4  1  0.16716543  0.50029862  0.16679654  1
  Ni  Ni5  1  0.00070775  0.33304958  0.33370312  1
  Ni  Ni6  1  0.99946929  0.66583049  0.00200970  1
  Ni  Ni7  1  0.16715154  0.83397266  0.16725109  1
  Fe  Fe8  1  0.00055210  0.66678642  0.33359537  1
  Ni  Ni9  1  0.33454762  0.00120562  0.00142581  1
  Ni  Ni10  1  0.50053571  0.16723369  0.16733563  1
  Ni  Ni11  1  0.33319652  0.99985483  0.33393480  1
  Ni  Ni12  1  0.33324388  0.33413384  0.00054164  1
  Ni  Ni13  1  0.50070520  0.50022534  0.16700792  1
  Ni  Ni14  1  0.33286417  0.33443434  0.33370871  1
  Ni  Ni15  1  0.33472122  0.66582913  0.00130191  1
  Ni  Ni16  1  0.50037445  0.83372025  0.16677742  1
  Ni  Ni17  1  0.33441813  0.66688282  0.33370195  1
  Ni  Ni18  1  0.66731763  1.00007040  0.00075220  1
  Ni  Ni19  1  0.83357301  0.16723749  0.16700913  1
  Ni  Ni20  1  0.66760996  0.99968847  0.33349424  1
  Ni  Ni21  1  0.66731136  0.33396976  0.00055231  1
  Ni  Ni22  1  0.83331994  0.50014097  0.16703760  1
  Ni  Ni23  1  0.66761341  0.33427329  0.33393316  1
  Ni  Ni24  1  0.66699968  0.66715318  0.99996092  1
  Ni  Ni25  1  0.83366540  0.83380019  0.16681234  1
  Ni  Ni26  1  0.66626266  0.66722676  0.33394033  1
  Ni  Ni27  1  0.16706581  0.16698551  0.50085907  1
  Ni  Ni28  1  0.00097243  0.00153803  0.66618255  1
  Ni  Ni29  1  0.16717970  0.16862087  0.83355269  1
  Ni  Ni30  1  0.16714803  0.50032085  0.50058043  1
  Ni  Ni31  1  0.00065158  0.33384668  0.66727987  1
  Ni  Ni32  1  0.16692670  0.49887330  0.83379054  1
  Ni  Ni33  1  0.16714139  0.83387923  0.50037639  1
  Ni  Ni34  1  0.99951320  0.66580993  0.66547372  1
  Cr  Cr35  1  0.16692864  0.83366700  0.83354960  1
  Ni  Ni36  1  0.49947259  0.16829219  0.49918081  1
  Ni  Ni37  1  0.33285545  0.00120150  0.66581970  1
  Ni  Ni38  1  0.49949646  0.16832836  0.83467241  1
  Ni  Ni39  1  0.50062063  0.50023073  0.50061732  1
  Ni  Ni40  1  0.33321044  0.33417514  0.66693106  1
  Ni  Ni41  1  0.50065201  0.50008639  0.83354894  1
  Ni  Ni42  1  0.49936061  0.83269159  0.49976386  1
  Ni  Ni43  1  0.33468350  0.66581172  0.66618487  1
  Ni  Ni44  1  0.50098016  0.83277350  0.83466616  1
  Ni  Ni45  1  0.83461352  0.16825492  0.49953108  1
  Cr  Cr46  1  0.66724295  1.00012035  0.66699599  1
  Ni  Ni47  1  0.83449153  0.16831882  0.83466244  1
  Ni  Ni48  1  0.83340577  0.50015370  0.50057875  1
  Ni  Ni49  1  0.66731709  0.33565366  0.66668642  1
  Ni  Ni50  1  0.83360137  0.50034291  0.83354826  1
  Ni  Ni51  1  0.83473792  0.83273133  0.49968806  1
  Ni  Ni52  1  0.66699247  0.66551529  0.66727663  1
  Ni  Ni53  1  0.83326338  0.83252785  0.83465786  1
" 