1278,Ni94Fe3Cr1_15,-239.004787803729, 177.33532579643,Ni94Fe3Cr1,"# generated using pymatgen
 data_Cr2FeNi51
_symmetry_space_group_name_H-M   'P 1'
_cell_length_a   7.46154772
_cell_length_b   7.46154772
_cell_length_c   10.55222198
_cell_angle_alpha   90.00000000
_cell_angle_beta   90.00000000
_cell_angle_gamma   90.00000000
_symmetry_Int_Tables_number   1
_chemical_formula_structural   Cr2FeNi51
_chemical_formula_sum   'Cr2 Fe1 Ni51'
_cell_volume   587.49173319
_cell_formula_units_Z   1
loop_
 _symmetry_equiv_pos_site_id
 _symmetry_equiv_pos_as_xyz
  1  'x, y, z'
loop_
 _atom_site_type_symbol
 _atom_site_label
 _atom_site_symmetry_multiplicity
 _atom_site_fract_x
 _atom_site_fract_y
 _atom_site_fract_z
 _atom_site_occupancy
  Ni  Ni0  1  1.00030610  0.00037034  1.00033006  1
  Ni  Ni1  1  0.16583412  0.16608054  0.16601328  1
  Ni  Ni2  1  0.99954757  1.00034255  0.33367720  1
  Ni  Ni3  1  0.00077684  0.33331613  0.00088680  1
  Ni  Ni4  1  0.16598838  0.50146372  0.16605899  1
  Ni  Ni5  1  0.99943940  0.33299287  0.33368128  1
  Ni  Ni6  1  0.00044645  0.66742978  0.00043612  1
  Ni  Ni7  1  0.16703806  0.83347632  0.16718494  1
  Ni  Ni8  1  0.00069556  0.66771981  0.33390137  1
  Ni  Ni9  1  0.33355514  0.00053321  0.00123412  1
  Ni  Ni10  1  0.50167990  0.16610169  0.16605029  1
  Fe  Fe11  1  0.33348447  0.99922547  0.33356949  1
  Ni  Ni12  1  0.33355087  0.33359675  1.00015022  1
  Ni  Ni13  1  0.50137354  0.50127354  0.16608954  1
  Cr  Cr14  1  0.33318567  0.33408226  0.33332138  1
  Ni  Ni15  1  0.33371478  0.66694231  1.00031951  1
  Ni  Ni16  1  0.50034441  0.83364479  0.16719117  1
  Ni  Ni17  1  0.33371247  0.66787644  0.33390267  1
  Ni  Ni18  1  0.66724410  1.00020223  1.00010384  1
  Ni  Ni19  1  0.83356663  0.16711551  0.16714493  1
  Ni  Ni20  1  0.66797660  1.00016915  0.33390599  1
  Ni  Ni21  1  0.66677955  0.33346977  0.00066697  1
  Ni  Ni22  1  0.83372566  0.50028179  0.16745035  1
  Ni  Ni23  1  0.66798581  0.33315135  0.33389775  1
  Ni  Ni24  1  0.66694451  0.66743326  0.00085923  1
  Ni  Ni25  1  0.83371811  0.83369829  0.16690059  1
  Ni  Ni26  1  0.66670392  0.66772007  0.33347827  1
  Ni  Ni27  1  0.16590735  0.16612138  0.50125822  1
  Ni  Ni28  1  1.00032368  0.00038999  0.66709914  1
  Ni  Ni29  1  0.16714818  0.16689280  0.83376139  1
  Ni  Ni30  1  0.16601684  0.50132732  0.50145959  1
  Ni  Ni31  1  0.00080616  0.33328089  0.66653853  1
  Ni  Ni32  1  0.16689764  0.50045784  0.83353138  1
  Ni  Ni33  1  0.16704110  0.83355576  0.50038083  1
  Ni  Ni34  1  0.00211013  0.66743964  0.66676339  1
  Ni  Ni35  1  0.16730094  0.83375349  0.83352831  1
  Ni  Ni36  1  0.50154561  0.16611984  0.50146302  1
  Ni  Ni37  1  0.33352670  0.00055573  0.66619604  1
  Ni  Ni38  1  0.50033095  0.16688218  0.83353078  1
  Ni  Ni39  1  0.50039028  0.50030664  0.50044933  1
  Ni  Ni40  1  0.33352375  0.33357159  0.66728645  1
  Ni  Ni41  1  0.49947293  0.49935621  0.83459671  1
  Ni  Ni42  1  0.49936046  0.83464980  0.49934253  1
  Ni  Ni43  1  0.33221387  0.66693940  0.66689187  1
  Ni  Ni44  1  0.49904824  0.83487506  0.83461954  1
  Ni  Ni45  1  0.83364319  0.16710475  0.50043105  1
  Ni  Ni46  1  0.66725525  0.00183463  0.66710082  1
  Ni  Ni47  1  0.83362593  0.16728482  0.83352901  1
  Ni  Ni48  1  0.83472204  0.49930628  0.49909120  1
  Ni  Ni49  1  0.66677791  0.33193619  0.66653840  1
  Ni  Ni50  1  0.83476484  0.49915924  0.83463659  1
  Ni  Ni51  1  0.83468223  0.83468033  0.49963616  1
  Cr  Cr52  1  0.66736127  0.66774092  0.66717895  1
  Ni  Ni53  1  0.83478554  0.83466899  0.83465606  1
" 