2834,Ni94Fe6_17,-226.295634788395, 140.647276403222,Ni94Fe6,"# generated using pymatgen
 data_Fe25Ni2
_symmetry_space_group_name_H-M   'P 1'
_cell_length_a   7.40984565
_cell_length_b   7.40984565
_cell_length_c   10.47910422
_cell_angle_alpha   90.00000000
_cell_angle_beta   90.00000000
_cell_angle_gamma   90.00000000
_symmetry_Int_Tables_number   1
_chemical_formula_structural   Fe25Ni2
_chemical_formula_sum   'Fe50 Ni4'
_cell_volume   575.36373243
_cell_formula_units_Z   2
loop_
 _symmetry_equiv_pos_site_id
 _symmetry_equiv_pos_as_xyz
  1  'x, y, z'
loop_
 _atom_site_type_symbol
 _atom_site_label
 _atom_site_symmetry_multiplicity
 _atom_site_fract_x
 _atom_site_fract_y
 _atom_site_fract_z
 _atom_site_occupancy
  Fe  Fe0  1  1.00385929  1.00385871  1.00385900  1
  Fe  Fe1  1  0.17052478  0.17052706  0.17053153  1
  Fe  Fe2  1  1.00328436  1.00318745  0.33709722  1
  Fe  Fe3  1  0.00395540  0.33719757  0.00395739  1
  Fe  Fe4  1  0.17062608  0.50376551  0.17033120  1
  Fe  Fe5  1  1.00296813  0.33818484  0.33741465  1
  Fe  Fe6  1  1.00385667  0.67052330  1.00385902  1
  Fe  Fe7  1  0.17052741  0.83728700  0.17042966  1
  Fe  Fe8  1  1.00280822  0.67020714  0.33741459  1
  Fe  Fe9  1  0.33719558  0.00395743  0.00395741  1
  Fe  Fe10  1  0.50376663  0.17052963  0.17042959  1
  Fe  Fe11  1  0.33786705  1.00328585  0.33710055  1
  Fe  Fe12  1  0.33709691  0.33709627  0.00405572  1
  Fe  Fe13  1  0.50408106  0.50417867  0.17074751  1
  Fe  Fe14  1  0.33776811  0.33767125  0.33690028  1
  Fe  Fe15  1  0.33709683  0.67052601  1.00308715  1
  Fe  Fe16  1  0.50417724  0.83687112  0.17084608  1
  Fe  Fe17  1  0.33782729  0.67062254  0.33777083  1
  Fe  Fe18  1  0.67052471  1.00385871  1.00385900  1
  Fe  Fe19  1  0.83728819  0.17043095  0.17033121  1
  Fe  Fe20  1  0.67042835  1.00312687  0.33699877  1
  Fe  Fe21  1  0.67052745  0.33709882  1.00308677  1
  Fe  Fe22  1  0.83687245  0.50417598  0.17151923  1
  Fe  Fe23  1  0.67084390  0.33814617  0.33818643  1
  Fe  Fe24  1  0.67062596  0.67062191  0.00472927  1
  Fe  Fe25  1  0.83687437  0.83697191  0.17074821  1
  Ni  Ni26  1  0.67054792  0.67028485  0.33754415  1
  Fe  Fe27  1  0.16975703  0.17110214  0.50366013  1
  Fe  Fe28  1  0.00395558  1.00385896  0.67062335  1
  Fe  Fe29  1  0.17042856  0.17043082  0.83738791  1
  Fe  Fe30  1  0.17021051  0.50417737  0.50417715  1
  Fe  Fe31  1  1.00358229  0.33818490  0.67020792  1
  Fe  Fe32  1  0.17094291  0.50427493  0.83707004  1
  Fe  Fe33  1  0.17016908  0.83630237  0.50427671  1
  Fe  Fe34  1  1.00359781  0.66953644  0.67030674  1
  Fe  Fe35  1  0.17084198  0.83687604  0.83687186  1
  Fe  Fe36  1  0.50485015  0.17151656  0.50417795  1
  Fe  Fe37  1  0.33786737  0.00390161  0.67052153  1
  Fe  Fe38  1  0.50427651  0.17084692  0.83697120  1
  Fe  Fe39  1  0.50481326  0.50417660  0.50418249  1
  Fe  Fe40  1  0.33783360  0.33773466  0.67062345  1
  Fe  Fe41  1  0.50376496  0.50386123  0.83664912  1
  Fe  Fe42  1  0.50443494  0.83588615  0.50376207  1
  Ni  Ni43  1  0.33666228  0.67105712  0.67030725  1
  Fe  Fe44  1  0.50344738  0.83687128  0.83697166  1
  Fe  Fe45  1  0.83697406  0.17147685  0.50427775  1
  Fe  Fe46  1  0.66975673  0.00391629  0.67072184  1
  Fe  Fe47  1  0.83687682  0.17074593  0.83696997  1
  Ni  Ni48  1  0.83693068  0.50396955  0.50397000  1
  Ni  Ni49  1  0.67129855  0.33679341  0.67028587  1
  Fe  Fe50  1  0.83687243  0.50344623  0.83629828  1
  Fe  Fe51  1  0.83697211  0.83633912  0.50334636  1
  Fe  Fe52  1  0.67020651  0.66956984  0.66953512  1
  Fe  Fe53  1  0.83728807  0.83738565  0.83748639  1
" 