3107,Ni94Fe5Cr0_6,-239.301851759054, 180.938412210169,Ni94Fe5Cr0,"# generated using pymatgen
 data_CrFeNi25
_symmetry_space_group_name_H-M   'P 1'
_cell_length_a   7.45577252
_cell_length_b   7.45577252
_cell_length_c   10.54405461
_cell_angle_alpha   90.00000000
_cell_angle_beta   90.00000000
_cell_angle_gamma   90.00000000
_symmetry_Int_Tables_number   1
_chemical_formula_structural   CrFeNi25
_chemical_formula_sum   'Cr2 Fe2 Ni50'
_cell_volume   586.12864226
_cell_formula_units_Z   2
loop_
 _symmetry_equiv_pos_site_id
 _symmetry_equiv_pos_as_xyz
  1  'x, y, z'
loop_
 _atom_site_type_symbol
 _atom_site_label
 _atom_site_symmetry_multiplicity
 _atom_site_fract_x
 _atom_site_fract_y
 _atom_site_fract_z
 _atom_site_occupancy
  Ni  Ni0  1  0.00242261  1.00065388  1.00063264  1
  Fe  Fe1  1  0.16710818  0.16700812  0.16741451  1
  Ni  Ni2  1  0.00106794  1.00065142  0.33394943  1
  Ni  Ni3  1  1.00056734  0.33434415  0.00112123  1
  Ni  Ni4  1  0.16568010  0.50140809  0.16743435  1
  Ni  Ni5  1  1.00015317  0.33393485  0.33389500  1
  Ni  Ni6  1  1.00064687  0.66727032  0.00119513  1
  Ni  Ni7  1  0.16728911  0.83378845  0.16715499  1
  Ni  Ni8  1  1.00023565  0.66768122  0.33381859  1
  Ni  Ni9  1  0.33266164  1.00065463  0.00087591  1
  Ni  Ni10  1  0.50048316  0.16660373  0.16814077  1
  Ni  Ni11  1  0.33401987  1.00065215  0.33370574  1
  Ni  Ni12  1  0.33345429  0.33328103  1.00006057  1
  Cr  Cr13  1  0.50048816  0.50049153  0.16699810  1
  Ni  Ni14  1  0.33386948  0.33287318  0.33495407  1
  Ni  Ni15  1  0.33337428  0.66833234  1.00013341  1
  Ni  Ni16  1  0.49938590  0.83535791  0.16814184  1
  Ni  Ni17  1  0.33378648  0.66874183  0.33487869  1
  Cr  Cr18  1  0.66721557  1.00054569  0.00102079  1
  Ni  Ni19  1  0.83449498  0.16821257  0.16813924  1
  Fe  Fe20  1  0.66737111  0.00080449  0.33430292  1
  Ni  Ni21  1  0.66824528  0.33505496  0.99988861  1
  Ni  Ni22  1  0.83606125  0.50030968  0.16715546  1
  Ni  Ni23  1  0.66824341  0.33370423  0.33468997  1
  Ni  Ni24  1  0.66824760  0.66647655  0.99992390  1
  Ni  Ni25  1  0.83559518  0.83374659  0.16814018  1
  Ni  Ni26  1  0.66824566  0.66783253  0.33465418  1
  Ni  Ni27  1  0.16747304  0.16749077  0.50027449  1
  Ni  Ni28  1  1.00055161  0.00076180  0.66768955  1
  Ni  Ni29  1  0.16747333  0.16723756  0.83483862  1
  Ni  Ni30  1  0.16765946  0.50078281  0.50052570  1
  Ni  Ni31  1  1.00049054  0.33381753  0.66725493  1
  Ni  Ni32  1  0.16765989  0.50078299  0.83430859  1
  Ni  Ni33  1  0.16747320  0.83399470  0.50075054  1
  Ni  Ni34  1  1.00048157  0.66768899  0.66725485  1
  Ni  Ni35  1  0.16747348  0.83424737  0.83436240  1
  Ni  Ni36  1  0.50067882  0.16776342  0.50063859  1
  Ni  Ni37  1  0.33429899  0.00076181  0.66768972  1
  Ni  Ni38  1  0.49996392  0.16847877  0.83348892  1
  Ni  Ni39  1  0.50051830  0.50053590  0.50069408  1
  Ni  Ni40  1  0.33435532  0.33381274  0.66725487  1
  Ni  Ni41  1  0.50077112  0.50053569  0.83442024  1
  Ni  Ni42  1  0.50043193  0.83396982  0.50039163  1
  Ni  Ni43  1  0.33436427  0.66769378  0.66725480  1
  Ni  Ni44  1  0.49971594  0.83325331  0.83373470  1
  Ni  Ni45  1  0.83411692  0.16757848  0.50082734  1
  Ni  Ni46  1  0.66741776  1.00075282  0.66683534  1
  Ni  Ni47  1  0.83483127  0.16829278  0.83330057  1
  Ni  Ni48  1  0.83409084  0.50053584  0.50031623  1
  Ni  Ni49  1  0.66742251  0.33388289  0.66768957  1
  Ni  Ni50  1  0.83383725  0.50053564  0.83479818  1
  Ni  Ni51  1  0.83436380  0.83415474  0.50058033  1
  Ni  Ni52  1  0.66742251  0.66763279  0.66768972  1
  Ni  Ni53  1  0.83507923  0.83343929  0.83354641  1
" 