1176,Ni94Fe6_18,-226.289211377461, 142.355960030533,Ni94Fe6,"# generated using pymatgen
 data_Fe25Ni2
_symmetry_space_group_name_H-M   'P 1'
_cell_length_a   7.40862091
_cell_length_b   7.40862091
_cell_length_c   10.47737217
_cell_angle_alpha   90.00000000
_cell_angle_beta   90.00000000
_cell_angle_gamma   90.00000000
_symmetry_Int_Tables_number   1
_chemical_formula_structural   Fe25Ni2
_chemical_formula_sum   'Fe50 Ni4'
_cell_volume   575.07848138
_cell_formula_units_Z   2
loop_
 _symmetry_equiv_pos_site_id
 _symmetry_equiv_pos_as_xyz
  1  'x, y, z'
loop_
 _atom_site_type_symbol
 _atom_site_label
 _atom_site_symmetry_multiplicity
 _atom_site_fract_x
 _atom_site_fract_y
 _atom_site_fract_z
 _atom_site_occupancy
  Fe  Fe0  1  0.00394415  1.00394103  0.00394355  1
  Fe  Fe1  1  0.17001034  0.17009771  0.16992473  1
  Fe  Fe2  1  1.00334495  1.00278098  0.33727565  1
  Fe  Fe3  1  0.00431314  0.33699301  1.00357214  1
  Fe  Fe4  1  0.17001057  0.50445540  0.17052218  1
  Fe  Fe5  1  1.00334545  0.33787390  0.33727653  1
  Fe  Fe6  1  1.00366123  0.67089533  0.00422708  1
  Fe  Fe7  1  0.17004499  0.83727621  0.17121019  1
  Fe  Fe8  1  1.00337821  0.67117456  0.33727609  1
  Fe  Fe9  1  0.33699173  0.00431176  1.00357241  1
  Fe  Fe10  1  0.50454193  0.17000969  0.17061035  1
  Fe  Fe11  1  0.33759211  1.00315040  0.33764599  1
  Fe  Fe12  1  0.33699390  0.33699347  1.00366334  1
  Fe  Fe13  1  0.50482335  0.50482513  0.17089280  1
  Fe  Fe14  1  0.33796137  0.33787421  0.33718579  1
  Fe  Fe15  1  0.33727439  0.67052451  1.00385577  1
  Fe  Fe16  1  0.50487657  0.83699431  0.17080475  1
  Fe  Fe17  1  0.33755858  0.67080505  0.33764616  1
  Fe  Fe18  1  0.67089402  1.00365986  0.00422735  1
  Fe  Fe19  1  0.83727698  0.17004356  0.17061030  1
  Fe  Fe20  1  0.67089230  1.00318374  0.33690639  1
  Fe  Fe21  1  0.67052296  0.33727592  1.00385579  1
  Fe  Fe22  1  0.83699493  0.50478987  0.17089304  1
  Fe  Fe23  1  0.67052277  0.33784081  0.33736723  1
  Fe  Fe24  1  0.67089327  0.67089287  0.00482374  1
  Ni  Ni25  1  0.83694128  0.83684252  0.17114248  1
  Ni  Ni26  1  0.67072651  0.67082543  0.33725847  1
  Fe  Fe27  1  0.17060901  0.17004683  0.50454015  1
  Fe  Fe28  1  0.00450648  1.00394146  0.67060991  1
  Ni  Ni29  1  0.17092605  0.17082732  0.83686144  1
  Fe  Fe30  1  0.17060897  0.50450668  0.50394266  1
  Fe  Fe31  1  0.00413842  0.33699477  0.67097928  1
  Fe  Fe32  1  0.17060886  0.50329228  0.83736453  1
  Ni  Ni33  1  0.17051090  0.83727621  0.50384463  1
  Fe  Fe34  1  0.00422437  0.67089364  0.67032748  1
  Fe  Fe35  1  0.17069712  0.83784226  0.83658861  1
  Fe  Fe36  1  0.50334541  0.17000996  0.50394250  1
  Fe  Fe37  1  0.33671195  1.00394261  0.67060904  1
  Fe  Fe38  1  0.50337918  0.17060800  0.83727650  1
  Fe  Fe39  1  0.50362668  0.50482491  0.50366066  1
  Fe  Fe40  1  0.33708222  0.33699534  0.67097866  1
  Fe  Fe41  1  0.50334544  0.50334724  0.83727636  1
  Fe  Fe42  1  0.50357462  0.83699458  0.50374866  1
  Fe  Fe43  1  0.33699350  0.67089192  0.67032720  1
  Fe  Fe44  1  0.50334546  0.83787431  0.83727653  1
  Fe  Fe45  1  0.83787514  0.17009832  0.50403071  1
  Fe  Fe46  1  0.67061141  0.00402901  0.67069721  1
  Fe  Fe47  1  0.83784372  0.17069632  0.83718846  1
  Fe  Fe48  1  0.83759369  0.50473672  0.50374871  1
  Fe  Fe49  1  0.67060947  0.33727614  0.67060645  1
  Fe  Fe50  1  0.83787522  0.50325894  0.83718835  1
  Fe  Fe51  1  0.83755690  0.83699484  0.50306109  1
  Fe  Fe52  1  0.67061136  0.67052430  0.67009952  1
  Fe  Fe53  1  0.83778693  0.83787428  0.83796481  1
" 