5318,Ni94Fe3Cr1_3,-239.055860281146, 177.668437734758,Ni94Fe3Cr1,"# generated using pymatgen
 data_Cr2FeNi51
_symmetry_space_group_name_H-M   'P 1'
_cell_length_a   7.46185704
_cell_length_b   7.46185704
_cell_length_c   10.55265943
_cell_angle_alpha   90.00000000
_cell_angle_beta   90.00000000
_cell_angle_gamma   90.00000000
_symmetry_Int_Tables_number   1
_chemical_formula_structural   Cr2FeNi51
_chemical_formula_sum   'Cr2 Fe1 Ni51'
_cell_volume   587.56480092
_cell_formula_units_Z   1
loop_
 _symmetry_equiv_pos_site_id
 _symmetry_equiv_pos_as_xyz
  1  'x, y, z'
loop_
 _atom_site_type_symbol
 _atom_site_label
 _atom_site_symmetry_multiplicity
 _atom_site_fract_x
 _atom_site_fract_y
 _atom_site_fract_z
 _atom_site_occupancy
  Ni  Ni0  1  0.99923150  0.00058878  0.00059009  1
  Ni  Ni1  1  0.16443085  0.16785817  0.16785863  1
  Ni  Ni2  1  0.00061026  0.00058882  0.33321578  1
  Ni  Ni3  1  0.99976146  0.33312476  0.00059003  1
  Ni  Ni4  1  0.16711995  0.50048323  0.16676614  1
  Ni  Ni5  1  1.00018376  0.33316295  0.33315839  1
  Ni  Ni6  1  0.99976191  0.66732981  0.00034807  1
  Ni  Ni7  1  0.16605625  0.83270230  0.16785850  1
  Ni  Ni8  1  1.00018384  0.66729154  0.33340048  1
  Cr  Cr9  1  0.33218403  0.99951248  0.99951437  1
  Cr  Cr10  1  0.50101171  0.16802153  0.16801806  1
  Ni  Ni11  1  0.33283479  0.99952264  0.33465843  1
  Ni  Ni12  1  0.33330766  0.33581568  0.99952435  1
  Ni  Ni13  1  0.50008838  0.50210843  0.16679304  1
  Ni  Ni14  1  0.33307614  0.33404611  0.33404026  1
  Ni  Ni15  1  0.33437370  0.66570429  0.00059007  1
  Ni  Ni16  1  0.50107018  0.83099182  0.16793959  1
  Ni  Ni17  1  0.33414266  0.66747495  0.33297422  1
  Fe  Fe18  1  0.66967496  0.99945640  0.99945799  1
  Ni  Ni19  1  0.83554513  0.16687573  0.16687296  1
  Ni  Ni20  1  0.66759960  0.99952269  0.33380737  1
  Ni  Ni21  1  0.66797488  0.33528900  0.99952466  1
  Ni  Ni22  1  0.83383525  0.50048253  0.16703537  1
  Ni  Ni23  1  0.66778261  0.33447077  0.33446435  1
  Ni  Ni24  1  0.66690908  0.66623222  0.00059004  1
  Ni  Ni25  1  0.83391881  0.83368460  0.16687281  1
  Ni  Ni26  1  0.66671673  0.66704878  0.33339967  1
  Ni  Ni27  1  0.16725506  0.16701502  0.50010507  1
  Ni  Ni28  1  0.00061084  0.00034990  0.66723735  1
  Ni  Ni29  1  0.16643130  0.16785817  0.83307947  1
  Ni  Ni30  1  0.16707309  0.50029129  0.50028947  1
  Ni  Ni31  1  1.00018375  0.33340197  0.66729478  1
  Ni  Ni32  1  0.16731211  0.50029133  0.83398804  1
  Ni  Ni33  1  0.16707147  0.83373722  0.50028941  1
  Ni  Ni34  1  1.00018364  0.66729148  0.66729475  1
  Ni  Ni35  1  0.16624855  0.83289447  0.83289573  1
  Ni  Ni36  1  0.50035051  0.16701098  0.50048322  1
  Ni  Ni37  1  0.33365954  0.00034820  0.66685980  1
  Ni  Ni38  1  0.50107016  0.16794219  0.83262121  1
  Ni  Ni39  1  0.50034480  0.50010751  0.50010493  1
  Ni  Ni40  1  0.33390202  0.33322008  0.66747911  1
  Ni  Ni41  1  0.50008807  0.50010750  0.83414491  1
  Ni  Ni42  1  0.50035055  0.83392479  0.50010512  1
  Ni  Ni43  1  0.33390377  0.66747525  0.66747929  1
  Ni  Ni44  1  0.50107045  0.83299354  0.83299940  1
  Ni  Ni45  1  0.83343777  0.16700927  0.50010499  1
  Ni  Ni46  1  0.66677397  0.00034815  0.66771095  1
  Ni  Ni47  1  0.83354341  0.16687550  0.83406547  1
  Ni  Ni48  1  0.83362559  0.50029135  0.50028954  1
  Ni  Ni49  1  0.66695742  0.33364642  0.66705340  1
  Ni  Ni50  1  0.83364353  0.50029072  0.83371846  1
  Ni  Ni51  1  0.83362148  0.83374290  0.50028947  1
  Ni  Ni52  1  0.66695578  0.66704851  0.66705314  1
  Ni  Ni53  1  0.83372685  0.83387680  0.83388137  1
" 