6466,Ni94Fe3Cr1_12,-239.054661204187, 177.478922437997,Ni94Fe3Cr1,"# generated using pymatgen
 data_Cr2FeNi51
_symmetry_space_group_name_H-M   'P 1'
_cell_length_a   7.46139892
_cell_length_b   7.46139892
_cell_length_c   10.55201154
_cell_angle_alpha   90.00000000
_cell_angle_beta   90.00000000
_cell_angle_gamma   90.00000000
_symmetry_Int_Tables_number   1
_chemical_formula_structural   Cr2FeNi51
_chemical_formula_sum   'Cr2 Fe1 Ni51'
_cell_volume   587.45658640
_cell_formula_units_Z   1
loop_
 _symmetry_equiv_pos_site_id
 _symmetry_equiv_pos_as_xyz
  1  'x, y, z'
loop_
 _atom_site_type_symbol
 _atom_site_label
 _atom_site_symmetry_multiplicity
 _atom_site_fract_x
 _atom_site_fract_y
 _atom_site_fract_z
 _atom_site_occupancy
  Ni  Ni0  1  0.00169086  0.99906620  0.00126957  1
  Ni  Ni1  1  0.16704360  0.16726806  0.16679662  1
  Ni  Ni2  1  0.00048478  1.00027227  0.33365662  1
  Ni  Ni3  1  0.00131944  0.33475090  0.00109720  1
  Ni  Ni4  1  0.16722054  0.50032650  0.16703779  1
  Ni  Ni5  1  0.00038694  0.33373116  0.33383716  1
  Ni  Ni6  1  0.00062588  0.66737052  1.00024051  1
  Ni  Ni7  1  0.16722247  0.83353459  0.16773412  1
  Ni  Ni8  1  1.00030536  0.66713249  0.33364418  1
  Ni  Ni9  1  0.33338653  1.00013118  1.00024051  1
  Ni  Ni10  1  0.50011233  0.16678897  0.16714602  1
  Ni  Ni11  1  0.33362456  0.00045169  0.33364418  1
  Ni  Ni12  1  0.33381256  0.33365563  1.00002264  1
  Ni  Ni13  1  0.49995679  0.50080026  0.16736595  1
  Ni  Ni14  1  0.33372595  0.33355462  0.33384852  1
  Ni  Ni15  1  0.33340061  0.66735645  0.00047224  1
  Ni  Ni16  1  0.50043055  0.83353652  0.16703779  1
  Ni  Ni17  1  0.33362881  0.66712825  0.33363073  1
  Ni  Ni18  1  0.66600615  0.99943761  0.00109720  1
  Ni  Ni19  1  0.83396809  0.16678897  0.16756403  1
  Ni  Ni20  1  0.66702590  1.00037011  0.33383716  1
  Ni  Ni21  1  0.66599694  0.33476012  0.00152268  1
  Ni  Ni22  1  0.83396809  0.50064473  0.16714602  1
  Ni  Ni23  1  0.66702936  0.33372770  0.33375489  1
  Ni  Ni24  1  0.66710143  0.66694449  1.00002264  1
  Ni  Ni25  1  0.83348899  0.83371346  0.16679662  1
  Ni  Ni26  1  0.66720244  0.66703110  0.33384852  1
  Ni  Ni27  1  0.16706792  0.16787709  0.50073876  1
  Ni  Ni28  1  0.00153253  0.99922453  0.66616071  1
  Ni  Ni29  1  0.16863237  0.16717567  0.83359867  1
  Ni  Ni30  1  0.16723349  0.49967373  0.50051519  1
  Ni  Ni31  1  0.00291209  0.33470992  0.66625129  1
  Ni  Ni32  1  0.16723835  0.50042991  0.83360059  1
  Fe  Fe33  1  0.16727061  0.83348644  0.50014387  1
  Ni  Ni34  1  0.00042655  0.66716189  0.66722339  1
  Ni  Ni35  1  0.16721402  0.83354303  0.83312774  1
  Ni  Ni36  1  0.49879561  0.16549524  0.49966714  1
  Ni  Ni37  1  0.33359516  1.00033051  0.66722339  1
  Ni  Ni38  1  0.49753979  0.16576014  0.83431016  1
  Ni  Ni39  1  0.49868755  0.50206951  0.49949349  1
  Ni  Ni40  1  0.33212088  0.33366730  0.66728627  1
  Ni  Ni41  1  0.49891695  0.50184011  0.83430293  1
  Ni  Ni42  1  0.50108333  0.83352357  0.50051519  1
  Ni  Ni43  1  0.33362079  0.66713627  0.66700130  1
  Ni  Ni44  1  0.50032714  0.83351870  0.83360059  1
  Ni  Ni45  1  0.83525897  0.16549808  0.49925635  1
  Ni  Ni46  1  0.66604713  0.99784497  0.66625129  1
  Cr  Cr47  1  0.83507610  0.16568096  0.83450155  1
  Ni  Ni48  1  0.83526182  0.50196144  0.49966714  1
  Cr  Cr49  1  0.66586738  0.33488968  0.66575751  1
  Ni  Ni50  1  0.83499691  0.50321727  0.83431016  1
  Ni  Ni51  1  0.83287997  0.83368913  0.50073876  1
  Ni  Ni52  1  0.66708976  0.66863618  0.66728627  1
  Ni  Ni53  1  0.83358138  0.83212469  0.83359867  1
" 