1758,Ni94Fe6_10,-226.20669845669, 143.468253827256,Ni94Fe6,"# generated using pymatgen
 data_Fe25Ni2
_symmetry_space_group_name_H-M   'P 1'
_cell_length_a   7.40544816
_cell_length_b   7.40544816
_cell_length_c   10.47288523
_cell_angle_alpha   90.00000000
_cell_angle_beta   90.00000000
_cell_angle_gamma   90.00000000
_symmetry_Int_Tables_number   1
_chemical_formula_structural   Fe25Ni2
_chemical_formula_sum   'Fe50 Ni4'
_cell_volume   574.33996417
_cell_formula_units_Z   2
loop_
 _symmetry_equiv_pos_site_id
 _symmetry_equiv_pos_as_xyz
  1  'x, y, z'
loop_
 _atom_site_type_symbol
 _atom_site_label
 _atom_site_symmetry_multiplicity
 _atom_site_fract_x
 _atom_site_fract_y
 _atom_site_fract_z
 _atom_site_occupancy
  Fe  Fe0  1  0.00416080  0.00415906  0.00416749  1
  Fe  Fe1  1  0.17082226  0.17082140  0.17082832  1
  Ni  Ni2  1  0.00415907  0.00415906  0.33749407  1
  Fe  Fe3  1  1.00415560  0.33749673  1.00415473  1
  Fe  Fe4  1  0.17082746  0.50415906  0.17083241  1
  Fe  Fe5  1  0.00416251  0.33748894  0.33749587  1
  Fe  Fe6  1  1.00415560  0.67082139  1.00415473  1
  Fe  Fe7  1  0.17082226  0.83749673  0.17082832  1
  Fe  Fe8  1  0.00416251  0.67082918  0.33749587  1
  Fe  Fe9  1  0.33749239  0.00415906  1.00415905  1
  Fe  Fe10  1  0.50415907  0.17082660  0.17082486  1
  Fe  Fe11  1  0.33748547  0.00415906  0.33749066  1
  Fe  Fe12  1  0.33749239  0.33749153  0.00415993  1
  Fe  Fe13  1  0.50415907  0.50415906  0.17082574  1
  Fe  Fe14  1  0.33748226  0.33748917  0.33749587  1
  Fe  Fe15  1  0.33749239  0.67082660  0.00415993  1
  Fe  Fe16  1  0.50415907  0.83749153  0.17082486  1
  Fe  Fe17  1  0.33748226  0.67082896  0.33749587  1
  Fe  Fe18  1  0.67082399  0.00415906  1.00415238  1
  Fe  Fe19  1  0.83749586  0.17082139  0.17083006  1
  Fe  Fe20  1  0.67083264  0.00415906  0.33749910  1
  Fe  Fe21  1  0.67082920  0.33749673  1.00415647  1
  Fe  Fe22  1  0.83749066  0.50415906  0.17081731  1
  Fe  Fe23  1  0.67083242  0.33748573  0.33749066  1
  Fe  Fe24  1  0.67082920  0.67082140  1.00415647  1
  Fe  Fe25  1  0.83749586  0.83749673  0.17083006  1
  Fe  Fe26  1  0.67083242  0.67083239  0.33749066  1
  Fe  Fe27  1  0.17082227  0.17083005  0.50415474  1
  Fe  Fe28  1  1.00415215  0.00415906  0.67081904  1
  Fe  Fe29  1  0.17081904  0.17083239  0.83749413  1
  Ni  Ni30  1  0.17082406  0.50415906  0.50415900  1
  Fe  Fe31  1  1.00415238  0.33749351  0.67082659  1
  Fe  Fe32  1  0.17081882  0.50415906  0.83748569  1
  Fe  Fe33  1  0.17082227  0.83748808  0.50415474  1
  Fe  Fe34  1  1.00415238  0.67082462  0.67082659  1
  Fe  Fe35  1  0.17081904  0.83748573  0.83749413  1
  Fe  Fe36  1  0.50415584  0.17082982  0.50416341  1
  Fe  Fe37  1  0.33750104  0.00415906  0.67082747  1
  Fe  Fe38  1  0.50416920  0.17082896  0.83748893  1
  Fe  Fe39  1  0.50415041  0.50415906  0.50415732  1
  Fe  Fe40  1  0.33749561  0.33748831  0.67082139  1
  Fe  Fe41  1  0.50416599  0.50415906  0.83749413  1
  Fe  Fe42  1  0.50415584  0.83748831  0.50416341  1
  Fe  Fe43  1  0.33749561  0.67082982  0.67082139  1
  Fe  Fe44  1  0.50416920  0.83748917  0.83748893  1
  Fe  Fe45  1  0.83749908  0.17082462  0.50415820  1
  Ni  Ni46  1  0.67082740  0.00415906  0.67082579  1
  Fe  Fe47  1  0.83748895  0.17082918  0.83748893  1
  Fe  Fe48  1  0.83749930  0.50415906  0.50416575  1
  Fe  Fe49  1  0.67082919  0.33748808  0.67083005  1
  Ni  Ni50  1  0.83749238  0.50415906  0.83749072  1
  Fe  Fe51  1  0.83749908  0.83749351  0.50415820  1
  Fe  Fe52  1  0.67082919  0.67083005  0.67083005  1
  Fe  Fe53  1  0.83748895  0.83748894  0.83748893  1
" 