1137,Ni94Fe5Cr0_12,-239.377078177572, 180.549970080301,Ni94Fe5Cr0,"# generated using pymatgen
 data_CrFeNi25
_symmetry_space_group_name_H-M   'P 1'
_cell_length_a   7.45694309
_cell_length_b   7.45694309
_cell_length_c   10.54571005
_cell_angle_alpha   90.00000000
_cell_angle_beta   90.00000000
_cell_angle_gamma   90.00000000
_symmetry_Int_Tables_number   1
_chemical_formula_structural   CrFeNi25
_chemical_formula_sum   'Cr2 Fe2 Ni50'
_cell_volume   586.40475538
_cell_formula_units_Z   2
loop_
 _symmetry_equiv_pos_site_id
 _symmetry_equiv_pos_as_xyz
  1  'x, y, z'
loop_
 _atom_site_type_symbol
 _atom_site_label
 _atom_site_symmetry_multiplicity
 _atom_site_fract_x
 _atom_site_fract_y
 _atom_site_fract_z
 _atom_site_occupancy
  Ni  Ni0  1  0.99950196  1.00042348  0.00157006  1
  Ni  Ni1  1  0.16758808  0.16708676  0.16794977  1
  Ni  Ni2  1  1.00048316  1.00057607  0.33394923  1
  Ni  Ni3  1  0.99963410  0.33429619  0.00137158  1
  Ni  Ni4  1  0.16766541  0.50085461  0.16748300  1
  Ni  Ni5  1  1.00066674  0.33396271  0.33452318  1
  Fe  Fe6  1  1.00024768  0.66745682  0.00090740  1
  Ni  Ni7  1  0.16753011  0.83411479  0.16712348  1
  Ni  Ni8  1  1.00065765  0.66750684  0.33324192  1
  Ni  Ni9  1  0.33464845  0.99894151  0.00138707  1
  Ni  Ni10  1  0.50068831  0.16739234  0.16683187  1
  Ni  Ni11  1  0.33368963  1.00050044  0.33387205  1
  Ni  Ni12  1  0.33439169  0.33559868  0.00181965  1
  Ni  Ni13  1  0.50087189  0.50077898  0.16740581  1
  Ni  Ni14  1  0.33376697  0.33426829  0.33340528  1
  Ni  Ni15  1  0.33479406  0.66749087  1.00028974  1
  Ni  Ni16  1  0.50069740  0.83384821  0.16811313  1
  Ni  Ni17  1  0.33382494  0.66724026  0.33423156  1
  Ni  Ni18  1  0.66793205  0.99989720  1.00052739  1
  Ni  Ni19  1  0.83375354  0.16726582  0.16751172  1
  Ni  Ni20  1  0.66788688  1.00055239  0.33360971  1
  Ni  Ni21  1  0.66802935  0.33449103  1.00030159  1
  Ni  Ni22  1  0.83346816  0.50080265  0.16774534  1
  Ni  Ni23  1  0.66760151  0.33408923  0.33384333  1
  Ni  Ni24  1  0.66650769  0.66765894  0.00077212  1
  Ni  Ni25  1  0.83377255  0.83396741  0.16741171  1
  Ni  Ni26  1  0.66758250  0.66738764  0.33394334  1
  Ni  Ni27  1  0.16696336  0.16575637  0.49953540  1
  Ni  Ni28  1  0.99946093  0.99953039  0.66647334  1
  Cr  Cr29  1  0.16661590  0.16594256  0.83444086  1
  Ni  Ni30  1  0.16670659  0.50241353  0.49996798  1
  Ni  Ni31  1  0.99798111  0.33501849  0.66609607  1
  Ni  Ni32  1  0.16651704  0.50361528  0.83470016  1
  Ni  Ni33  1  0.16656099  0.83386418  0.50106531  1
  Ni  Ni34  1  1.00055532  0.66752680  0.66824650  1
  Ni  Ni35  1  0.16734639  0.83239020  0.83393385  1
  Ni  Ni36  1  0.50172095  0.16705886  0.49998347  1
  Ni  Ni37  1  0.33483801  0.99773977  0.66665489  1
  Ni  Ni38  1  0.50337394  0.16633655  0.83525898  1
  Ni  Ni39  1  0.50185308  0.50093157  0.49978499  1
  Cr  Cr40  1  0.33473915  0.33541249  0.66691419  1
  Ni  Ni41  1  0.50189412  0.50182466  0.83488171  1
  Fe  Fe42  1  0.50110737  0.83389822  0.50044765  1
  Ni  Ni43  1  0.33400866  0.66896484  0.66742120  1
  Ni  Ni44  1  0.50079973  0.83382825  0.83310855  1
  Ni  Ni45  1  0.83332570  0.16686402  0.50105346  1
  Ni  Ni46  1  0.66785895  1.00037013  0.66783357  1
  Ni  Ni47  1  0.83213892  0.16715841  0.83346282  1
  Ni  Ni48  1  0.83342299  0.50145784  0.50082766  1
  Ni  Ni49  1  0.66921613  0.33419664  0.66789223  1
  Ni  Ni50  1  0.83349610  0.50098492  0.83352148  1
  Ni  Ni51  1  0.83484736  0.83369611  0.50058293  1
  Ni  Ni52  1  0.66750152  0.66745664  0.66723468  1
  Ni  Ni53  1  0.83385353  0.83389841  0.83412037  1
" 