3483,Ni94Fe6_14,-226.206845967582, 142.754232906372,Ni94Fe6,"# generated using pymatgen
 data_Fe25Ni2
_symmetry_space_group_name_H-M   'P 1'
_cell_length_a   7.40541209
_cell_length_b   7.40541209
_cell_length_c   10.47283421
_cell_angle_alpha   90.00000000
_cell_angle_beta   90.00000000
_cell_angle_gamma   90.00000000
_symmetry_Int_Tables_number   1
_chemical_formula_structural   Fe25Ni2
_chemical_formula_sum   'Fe50 Ni4'
_cell_volume   574.33157066
_cell_formula_units_Z   2
loop_
 _symmetry_equiv_pos_site_id
 _symmetry_equiv_pos_as_xyz
  1  'x, y, z'
loop_
 _atom_site_type_symbol
 _atom_site_label
 _atom_site_symmetry_multiplicity
 _atom_site_fract_x
 _atom_site_fract_y
 _atom_site_fract_z
 _atom_site_occupancy
  Fe  Fe0  1  0.00416841  0.00416152  1.00415486  1
  Fe  Fe1  1  0.17083829  0.17083140  0.17082474  1
  Fe  Fe2  1  1.00416151  0.00416152  0.33750151  1
  Fe  Fe3  1  0.00416818  0.33748820  1.00416151  1
  Fe  Fe4  1  0.17083509  0.50416152  0.17082819  1
  Fe  Fe5  1  1.00415807  0.33749831  0.33749830  1
  Fe  Fe6  1  0.00416818  0.67083483  1.00416151  1
  Fe  Fe7  1  0.17083829  0.83749164  0.17082474  1
  Fe  Fe8  1  1.00415807  0.67082473  0.33749830  1
  Ni  Ni9  1  0.33749487  0.00416152  1.00416151  1
  Fe  Fe10  1  0.50415807  0.17083163  0.17082474  1
  Fe  Fe11  1  0.33749486  0.00416152  0.33748820  1
  Fe  Fe12  1  0.33749830  0.33749140  0.00416497  1
  Ni  Ni13  1  0.50416151  0.50416152  0.17082819  1
  Fe  Fe14  1  0.33749830  0.33749831  0.33749140  1
  Fe  Fe15  1  0.33749830  0.67083163  0.00416497  1
  Fe  Fe16  1  0.50415807  0.83749140  0.17082474  1
  Fe  Fe17  1  0.33749830  0.67082473  0.33749140  1
  Fe  Fe18  1  0.67082128  0.00416152  1.00416151  1
  Fe  Fe19  1  0.83748819  0.17083483  0.17082819  1
  Fe  Fe20  1  0.67082819  0.00416152  0.33749485  1
  Fe  Fe21  1  0.67081808  0.33749164  0.00416496  1
  Fe  Fe22  1  0.83748796  0.50416152  0.17083485  1
  Fe  Fe23  1  0.67082819  0.33750175  0.33749485  1
  Fe  Fe24  1  0.67081808  0.67083140  0.00416496  1
  Fe  Fe25  1  0.83748819  0.83748820  0.17082819  1
  Fe  Fe26  1  0.67082819  0.67082129  0.33749485  1
  Fe  Fe27  1  0.17081808  0.17083140  0.50416496  1
  Ni  Ni28  1  1.00416151  0.00416152  0.67082819  1
  Fe  Fe29  1  0.17082819  0.17082129  0.83749485  1
  Fe  Fe30  1  0.17082128  0.50416152  0.50416151  1
  Fe  Fe31  1  1.00415807  0.33749140  0.67082474  1
  Fe  Fe32  1  0.17082819  0.50416152  0.83749485  1
  Fe  Fe33  1  0.17081808  0.83749164  0.50416496  1
  Fe  Fe34  1  1.00415807  0.67083163  0.67082474  1
  Fe  Fe35  1  0.17082819  0.83750175  0.83749485  1
  Fe  Fe36  1  0.50416818  0.17083483  0.50416151  1
  Fe  Fe37  1  0.33748796  0.00416152  0.67083485  1
  Fe  Fe38  1  0.50415807  0.17082473  0.83749830  1
  Fe  Fe39  1  0.50416841  0.50416152  0.50415486  1
  Fe  Fe40  1  0.33748819  0.33748820  0.67082819  1
  Fe  Fe41  1  0.50416151  0.50416152  0.83750151  1
  Fe  Fe42  1  0.50416818  0.83748820  0.50416151  1
  Fe  Fe43  1  0.33748819  0.67083483  0.67082819  1
  Fe  Fe44  1  0.50415807  0.83749831  0.83749830  1
  Fe  Fe45  1  0.83749830  0.17083163  0.50416497  1
  Fe  Fe46  1  0.67083509  0.00416152  0.67082819  1
  Fe  Fe47  1  0.83749830  0.17082473  0.83749140  1
  Ni  Ni48  1  0.83749487  0.50416152  0.50416151  1
  Fe  Fe49  1  0.67083829  0.33749164  0.67082474  1
  Fe  Fe50  1  0.83749486  0.50416152  0.83748820  1
  Fe  Fe51  1  0.83749830  0.83749140  0.50416497  1
  Fe  Fe52  1  0.67083829  0.67083140  0.67082474  1
  Fe  Fe53  1  0.83749830  0.83749831  0.83749140  1
" 