5599,Ni94Fe5Cr0_19,-239.415713217341, 181.138234407826,Ni94Fe5Cr0,"# generated using pymatgen
 data_CrFeNi25
_symmetry_space_group_name_H-M   'P 1'
_cell_length_a   7.45431384
_cell_length_b   7.45431384
_cell_length_c   10.54199173
_cell_angle_alpha   90.00000000
_cell_angle_beta   90.00000000
_cell_angle_gamma   90.00000000
_symmetry_Int_Tables_number   1
_chemical_formula_structural   CrFeNi25
_chemical_formula_sum   'Cr2 Fe2 Ni50'
_cell_volume   585.78469162
_cell_formula_units_Z   2
loop_
 _symmetry_equiv_pos_site_id
 _symmetry_equiv_pos_as_xyz
  1  'x, y, z'
loop_
 _atom_site_type_symbol
 _atom_site_label
 _atom_site_symmetry_multiplicity
 _atom_site_fract_x
 _atom_site_fract_y
 _atom_site_fract_z
 _atom_site_occupancy
  Ni  Ni0  1  0.00099533  1.00048760  1.00009320  1
  Ni  Ni1  1  0.16839092  0.16750685  0.16776167  1
  Ni  Ni2  1  1.00082011  1.00066272  0.33499859  1
  Ni  Ni3  1  0.00099441  0.33458549  1.00059037  1
  Ni  Ni4  1  0.16622937  0.49955023  0.16668646  1
  Ni  Ni5  1  1.00081947  0.33441081  0.33450109  1
  Ni  Ni6  1  0.00110262  0.66749255  0.00123411  1
  Ni  Ni7  1  0.16620528  0.83550432  0.16668718  1
  Ni  Ni8  1  0.99913038  0.66749192  0.33405213  1
  Ni  Ni9  1  0.33418006  1.00056821  0.00104318  1
  Ni  Ni10  1  0.49995552  0.16753165  0.16776150  1
  Ni  Ni11  1  0.33418039  0.00254137  0.33424258  1
  Ni  Ni12  1  0.33392631  0.33424718  1.00078696  1
  Ni  Ni13  1  0.50215867  0.49956434  0.16668491  1
  Ni  Ni14  1  0.33392549  0.33227107  0.33449930  1
  Ni  Ni15  1  0.33373708  0.66774555  1.00026313  1
  Ni  Ni16  1  0.50215793  0.83546535  0.16668581  1
  Cr  Cr17  1  0.33383330  0.66768496  0.33454581  1
  Ni  Ni18  1  0.66738805  1.00067632  1.00078324  1
  Fe  Fe19  1  0.83421088  0.16751138  0.16751124  1
  Ni  Ni20  1  0.66756328  1.00085214  0.33430786  1
  Ni  Ni21  1  0.66764274  0.33414010  1.00052749  1
  Ni  Ni22  1  0.83417628  0.50175217  0.16776162  1
  Ni  Ni23  1  0.66781908  0.33396332  0.33456443  1
  Ni  Ni24  1  0.66772361  0.66774460  1.00059318  1
  Ni  Ni25  1  0.83420104  0.83330319  0.16776168  1
  Ni  Ni26  1  0.66970236  0.66774512  0.33469411  1
  Ni  Ni27  1  0.16764939  0.16762008  0.50078805  1
  Fe  Fe28  1  1.00082297  0.00263185  0.66753424  1
  Ni  Ni29  1  0.16743382  0.16762123  0.83401415  1
  Ni  Ni30  1  0.16731931  0.49895121  0.50059211  1
  Ni  Ni31  1  0.00087780  0.33311483  0.66747048  1
  Ni  Ni32  1  0.16816295  0.49979239  0.83528059  1
  Ni  Ni33  1  0.16739484  0.83600546  0.50052953  1
  Cr  Cr34  1  0.00105380  0.66682585  0.66730844  1
  Ni  Ni35  1  0.16824351  0.83515783  0.83534828  1
  Ni  Ni36  1  0.50059292  0.16754402  0.50060485  1
  Ni  Ni37  1  0.33498506  1.00075587  0.66727653  1
  Ni  Ni38  1  0.50080895  0.16754420  0.83419635  1
  Ni  Ni39  1  0.50192687  0.50001446  0.50172418  1
  Ni  Ni40  1  0.33386900  0.33383086  0.66727698  1
  Ni  Ni41  1  0.50107952  0.50085955  0.83415043  1
  Ni  Ni42  1  0.50192238  0.83500273  0.50166597  1
  Ni  Ni43  1  0.33547680  0.66798081  0.66766243  1
  Ni  Ni44  1  0.50107890  0.83415984  0.83420646  1
  Ni  Ni45  1  0.83432006  0.16762086  0.50053617  1
  Ni  Ni46  1  0.66669562  0.00096964  0.66747090  1
  Ni  Ni47  1  0.83431819  0.16762247  0.83451146  1
  Ni  Ni48  1  0.83331850  0.50028138  0.49977965  1
  Ni  Ni49  1  0.66781482  0.33361793  0.66747033  1
  Ni  Ni50  1  0.83331888  0.50006427  0.83502244  1
  Ni  Ni51  1  0.83323794  0.83466700  0.49971194  1
  Ni  Ni52  1  0.66599207  0.66798106  0.66727598  1
  Ni  Ni53  1  0.83323771  0.83488433  0.83509077  1
" 