937,Ni94Fe6_19,-226.334061388783, 143.427932449916,Ni94Fe6,"# generated using pymatgen
 data_Fe25Ni2
_symmetry_space_group_name_H-M   'P 1'
_cell_length_a   7.40802201
_cell_length_b   7.40802201
_cell_length_c   10.47652520
_cell_angle_alpha   90.00000000
_cell_angle_beta   90.00000000
_cell_angle_gamma   90.00000000
_symmetry_Int_Tables_number   1
_chemical_formula_structural   Fe25Ni2
_chemical_formula_sum   'Fe50 Ni4'
_cell_volume   574.93902810
_cell_formula_units_Z   2
loop_
 _symmetry_equiv_pos_site_id
 _symmetry_equiv_pos_as_xyz
  1  'x, y, z'
loop_
 _atom_site_type_symbol
 _atom_site_label
 _atom_site_symmetry_multiplicity
 _atom_site_fract_x
 _atom_site_fract_y
 _atom_site_fract_z
 _atom_site_occupancy
  Fe  Fe0  1  0.00457102  0.00398753  0.00398487  1
  Fe  Fe1  1  0.17094579  0.17035587  0.17079998  1
  Fe  Fe2  1  0.00451415  1.00394889  0.33799373  1
  Fe  Fe3  1  0.00460727  0.33669161  0.00398491  1
  Fe  Fe4  1  0.17085315  0.50436615  0.17094500  1
  Fe  Fe5  1  0.00460538  0.33735070  0.33790258  1
  Fe  Fe6  1  0.00451578  0.67127257  1.00389353  1
  Fe  Fe7  1  0.17123692  0.83722914  0.17056060  1
  Fe  Fe8  1  0.00456820  0.67065192  0.33713513  1
  Ni  Ni9  1  0.33731847  1.00387872  0.00408600  1
  Fe  Fe10  1  0.50377948  0.17035654  0.17008589  1
  Fe  Fe11  1  0.33702253  1.00360596  0.33689686  1
  Fe  Fe12  1  0.33731469  0.33663913  1.00389360  1
  Fe  Fe13  1  0.50377962  0.50427504  0.17103677  1
  Fe  Fe14  1  0.33702320  0.33778745  0.33761097  1
  Fe  Fe15  1  0.33731803  0.67123529  0.00460815  1
  Fe  Fe16  1  0.50339580  0.83732025  0.17065232  1
  Ni  Ni17  1  0.33721469  0.67075327  0.33731437  1
  Fe  Fe18  1  0.67006605  0.00398419  0.00398485  1
  Fe  Fe19  1  0.83722701  0.17074033  0.17128017  1
  Fe  Fe20  1  0.67041468  1.00356839  0.33761294  1
  Fe  Fe21  1  0.67002973  0.33669498  0.00398489  1
  Fe  Fe22  1  0.83731850  0.50398291  0.17046572  1
  Fe  Fe23  1  0.67032345  0.33773126  0.33752173  1
  Fe  Fe24  1  0.67011785  0.67127255  1.00389353  1
  Fe  Fe25  1  0.83731853  0.83722842  0.17056125  1
  Fe  Fe26  1  0.66997495  0.67065188  0.33723071  1
  Ni  Ni27  1  0.16986036  0.17065183  0.50388199  1
  Fe  Fe28  1  1.00389505  0.00456980  0.66997292  1
  Fe  Fe29  1  0.17103559  0.17035488  0.83707832  1
  Fe  Fe30  1  0.17032281  0.50307311  0.50368973  1
  Fe  Fe31  1  0.00398632  0.33672982  0.67006398  1
  Fe  Fe32  1  0.17056202  0.50407508  0.83731605  1
  Fe  Fe33  1  0.17032575  0.83823103  0.50369015  1
  Fe  Fe34  1  1.00389511  0.67065194  0.67092298  1
  Fe  Fe35  1  0.17094650  0.83752075  0.83770092  1
  Fe  Fe36  1  0.50407355  0.17064811  0.50407442  1
  Fe  Fe37  1  0.33702193  0.00427989  0.67116050  1
  Fe  Fe38  1  0.50368971  0.17035553  0.83779229  1
  Fe  Fe39  1  0.50369045  0.50303389  0.50368956  1
  Fe  Fe40  1  0.33702259  0.33711191  0.67044651  1
  Fe  Fe41  1  0.50407115  0.50398360  0.83722468  1
  Fe  Fe42  1  0.50368749  0.83827018  0.50368998  1
  Fe  Fe43  1  0.33740702  0.67056055  0.67002151  1
  Fe  Fe44  1  0.50368662  0.83761222  0.83760961  1
  Ni  Ni45  1  0.83820787  0.17065185  0.50398652  1
  Fe  Fe46  1  0.67103452  0.00418842  0.67035459  1
  Fe  Fe47  1  0.83722703  0.17074025  0.83669265  1
  Fe  Fe48  1  0.83793808  0.50268794  0.50407436  1
  Fe  Fe49  1  0.67094325  0.33711126  0.67044571  1
  Fe  Fe50  1  0.83731851  0.50407185  0.83741157  1
  Fe  Fe51  1  0.83793810  0.83861235  0.50407437  1
  Fe  Fe52  1  0.67064960  0.67065191  0.67082745  1
  Fe  Fe53  1  0.83731854  0.83713956  0.83731604  1
" 