7219,Ni94Fe6_13,-226.406107874576, 142.924217313455,Ni94Fe6,"# generated using pymatgen
 data_Fe25Ni2
_symmetry_space_group_name_H-M   'P 1'
_cell_length_a   7.41048103
_cell_length_b   7.41048103
_cell_length_c   10.48000278
_cell_angle_alpha   90.00000000
_cell_angle_beta   90.00000000
_cell_angle_gamma   90.00000000
_symmetry_Int_Tables_number   1
_chemical_formula_structural   Fe25Ni2
_chemical_formula_sum   'Fe50 Ni4'
_cell_volume   575.51175384
_cell_formula_units_Z   2
loop_
 _symmetry_equiv_pos_site_id
 _symmetry_equiv_pos_as_xyz
  1  'x, y, z'
loop_
 _atom_site_type_symbol
 _atom_site_label
 _atom_site_symmetry_multiplicity
 _atom_site_fract_x
 _atom_site_fract_y
 _atom_site_fract_z
 _atom_site_occupancy
  Fe  Fe0  1  0.00511000  1.00319904  1.00372756  1
  Fe  Fe1  1  0.17069108  0.17027566  0.17018935  1
  Fe  Fe2  1  1.00314407  0.00390411  0.33714884  1
  Fe  Fe3  1  0.00505385  0.33714880  0.00381752  1
  Fe  Fe4  1  0.17069167  0.50411343  0.17028246  1
  Fe  Fe5  1  1.00319998  0.33653095  0.33715244  1
  Fe  Fe6  1  0.00501832  0.67110207  0.00381760  1
  Fe  Fe7  1  0.17098266  0.83706009  0.16971709  1
  Fe  Fe8  1  1.00311010  0.67101484  0.33714878  1
  Ni  Ni9  1  0.33724845  1.00292936  0.00391641  1
  Fe  Fe10  1  0.50390518  0.16998261  0.17048342  1
  Fe  Fe11  1  0.33803284  1.00361003  0.33691334  1
  Fe  Fe12  1  0.33715053  0.33714790  0.00381755  1
  Fe  Fe13  1  0.50352022  0.50402377  0.17009806  1
  Fe  Fe14  1  0.33768040  0.33653129  0.33723878  1
  Ni  Ni15  1  0.33682431  0.67104417  1.00349229  1
  Fe  Fe16  1  0.50352171  0.83744318  0.17080981  1
  Fe  Fe17  1  0.33806378  0.67130796  0.33691287  1
  Fe  Fe18  1  0.66927793  1.00319614  0.00443792  1
  Fe  Fe19  1  0.83685471  0.17027663  0.17086320  1
  Ni  Ni20  1  0.67058519  0.00401860  0.33749634  1
  Fe  Fe21  1  0.66924550  0.33723898  1.00372748  1
  Fe  Fe22  1  0.83723735  0.50372924  0.17047995  1
  Fe  Fe23  1  0.67056954  0.33656580  0.33705874  1
  Fe  Fe24  1  0.66927485  0.67101476  1.00372751  1
  Fe  Fe25  1  0.83694412  0.83744508  0.17086774  1
  Fe  Fe26  1  0.67027596  0.67136756  0.33753309  1
  Fe  Fe27  1  0.17110382  0.16995067  0.50390611  1
  Fe  Fe28  1  0.00381800  0.00390413  0.67057370  1
  Fe  Fe29  1  0.17069184  0.17018701  0.83735529  1
  Fe  Fe30  1  0.17110406  0.50443809  0.50381238  1
  Fe  Fe31  1  0.00381787  0.33714882  0.67048001  1
  Fe  Fe32  1  0.17069007  0.50411175  0.83735352  1
  Fe  Fe33  1  0.17107487  0.83706138  0.50390605  1
  Fe  Fe34  1  1.00372754  0.67039704  0.67048350  1
  Fe  Fe35  1  0.17098196  0.83715036  0.83782608  1
  Fe  Fe36  1  0.50410901  0.16959975  0.50352295  1
  Fe  Fe37  1  0.33735660  1.00361015  0.67080901  1
  Fe  Fe38  1  0.50361187  0.17027490  0.83744501  1
  Fe  Fe39  1  0.50372656  0.50440602  0.50390606  1
  Fe  Fe40  1  0.33706257  0.33714876  0.67039358  1
  Fe  Fe41  1  0.50360971  0.50402226  0.83744437  1
  Ni  Ni42  1  0.50394163  0.83727163  0.50369521  1
  Fe  Fe43  1  0.33744661  0.67069078  0.67071932  1
  Fe  Fe44  1  0.50322954  0.83715195  0.83711693  1
  Fe  Fe45  1  0.83623844  0.16957246  0.50352390  1
  Fe  Fe46  1  0.67027641  1.00352080  0.66948040  1
  Fe  Fe47  1  0.83714670  0.17056871  0.83706397  1
  Fe  Fe48  1  0.83661952  0.50443500  0.50390610  1
  Fe  Fe49  1  0.67056954  0.33723922  0.67066383  1
  Fe  Fe50  1  0.83714933  0.50372917  0.83706393  1
  Fe  Fe51  1  0.83626831  0.83744420  0.50352258  1
  Fe  Fe52  1  0.67027606  0.67069047  0.67018942  1
  Fe  Fe53  1  0.83723689  0.83715212  0.83706029  1
" 