6432,Ni94Fe5Cr0_17,-239.322754247596, 180.363674675634,Ni94Fe5Cr0,"# generated using pymatgen
 data_CrFeNi25
_symmetry_space_group_name_H-M   'P 1'
_cell_length_a   7.45696476
_cell_length_b   7.45696476
_cell_length_c   10.54574070
_cell_angle_alpha   90.00000000
_cell_angle_beta   90.00000000
_cell_angle_gamma   90.00000000
_symmetry_Int_Tables_number   1
_chemical_formula_structural   CrFeNi25
_chemical_formula_sum   'Cr2 Fe2 Ni50'
_cell_volume   586.40986884
_cell_formula_units_Z   2
loop_
 _symmetry_equiv_pos_site_id
 _symmetry_equiv_pos_as_xyz
  1  'x, y, z'
loop_
 _atom_site_type_symbol
 _atom_site_label
 _atom_site_symmetry_multiplicity
 _atom_site_fract_x
 _atom_site_fract_y
 _atom_site_fract_z
 _atom_site_occupancy
  Ni  Ni0  1  0.00137343  0.00096914  1.00036840  1
  Ni  Ni1  1  0.16780376  0.16758719  0.16690243  1
  Ni  Ni2  1  0.00075572  0.00073178  0.33408929  1
  Ni  Ni3  1  1.00046968  0.33329899  1.00021501  1
  Ni  Ni4  1  0.16736805  0.50062342  0.16730286  1
  Ni  Ni5  1  0.00069512  0.33378281  0.33403115  1
  Ni  Ni6  1  1.00028355  0.66776006  1.00064715  1
  Ni  Ni7  1  0.16761978  0.83381717  0.16709138  1
  Ni  Ni8  1  1.00050735  0.66751367  0.33384195  1
  Ni  Ni9  1  0.33251602  1.00009453  0.00127885  1
  Ni  Ni10  1  0.50057495  0.16741709  0.16759934  1
  Ni  Ni11  1  0.33398037  0.00091618  0.33427788  1
  Ni  Ni12  1  0.33353316  0.33428706  0.00172836  1
  Ni  Ni13  1  0.50065228  0.50043562  0.16667473  1
  Ni  Ni14  1  0.33423509  0.33379288  0.33365290  1
  Ni  Ni15  1  0.33459837  0.66764883  1.00028534  1
  Ni  Ni16  1  0.50057166  0.83417645  0.16722232  1
  Ni  Ni17  1  0.33423837  0.66731914  0.33403104  1
  Fe  Fe18  1  0.66819508  0.99977405  0.00152526  1
  Ni  Ni19  1  0.83364944  0.16766759  0.16697431  1
  Ni  Ni20  1  0.66729233  0.00072869  0.33361456  1
  Ni  Ni21  1  0.66802656  0.33538023  0.00135012  1
  Ni  Ni22  1  0.83400838  0.50061946  0.16733863  1
  Ni  Ni23  1  0.66709810  0.33404080  0.33427778  1
  Ni  Ni24  1  0.66714816  0.66674387  1.00047403  1
  Ni  Ni25  1  0.83383737  0.83373980  0.16716367  1
  Ni  Ni26  1  0.66728236  0.66725842  0.33408930  1
  Ni  Ni27  1  0.16697781  0.16674075  0.50032089  1
  Ni  Ni28  1  1.00056945  0.00078327  0.66757074  1
  Ni  Ni29  1  0.16522095  0.16698975  0.83480400  1
  Ni  Ni30  1  0.16654496  0.50144789  0.49988758  1
  Ni  Ni31  1  0.99870769  0.33352494  0.66778300  1
  Ni  Ni32  1  0.16574314  0.50163386  0.83483887  1
  Ni  Ni33  1  0.16785671  0.83383833  0.50119746  1
  Ni  Ni34  1  1.00032303  0.66772023  0.66753912  1
  Ni  Ni35  1  0.16789637  0.83340632  0.83374017  1
  Ni  Ni36  1  0.50150483  0.16648851  0.49969828  1
  Ni  Ni37  1  0.33313627  0.99810854  0.66647276  1
  Cr  Cr38  1  0.50133980  0.16600963  0.83467174  1
  Ni  Ni39  1  0.50149807  0.50126109  0.50055047  1
  Cr  Cr40  1  0.33315801  0.33451762  0.66649862  1
  Fe  Fe41  1  0.50161651  0.50333346  0.83494603  1
  Ni  Ni42  1  0.50043962  0.83428089  0.50113898  1
  Ni  Ni43  1  0.33437309  0.66941122  0.66771259  1
  Ni  Ni44  1  0.50033369  0.83279827  0.83366661  1
  Ni  Ni45  1  0.83354486  0.16779986  0.50138609  1
  Ni  Ni46  1  0.66832327  0.99972194  0.66694743  1
  Ni  Ni47  1  0.83541235  0.16813244  0.83366673  1
  Ni  Ni48  1  0.83398683  0.50038270  0.50095080  1
  Ni  Ni49  1  0.67001417  0.33476036  0.66640047  1
  Ni  Ni50  1  0.83480812  0.50056839  0.83374016  1
  Ni  Ni51  1  0.83373203  0.83384535  0.50095405  1
  Ni  Ni52  1  0.66733359  0.66754787  0.66746565  1
  Ni  Ni53  1  0.83379808  0.83332931  0.83391041  1
" 