3565,Ni94Fe5Cr0_8,-239.363419686183, 180.804484369817,Ni94Fe5Cr0,"# generated using pymatgen
 data_CrFeNi25
_symmetry_space_group_name_H-M   'P 1'
_cell_length_a   7.45710250
_cell_length_b   7.45710250
_cell_length_c   10.54593549
_cell_angle_alpha   90.00000000
_cell_angle_beta   90.00000000
_cell_angle_gamma   90.00000000
_symmetry_Int_Tables_number   1
_chemical_formula_structural   CrFeNi25
_chemical_formula_sum   'Cr2 Fe2 Ni50'
_cell_volume   586.44236417
_cell_formula_units_Z   2
loop_
 _symmetry_equiv_pos_site_id
 _symmetry_equiv_pos_as_xyz
  1  'x, y, z'
loop_
 _atom_site_type_symbol
 _atom_site_label
 _atom_site_symmetry_multiplicity
 _atom_site_fract_x
 _atom_site_fract_y
 _atom_site_fract_z
 _atom_site_occupancy
  Ni  Ni0  1  0.00224742  0.00069205  1.00057701  1
  Ni  Ni1  1  0.16671225  0.16733560  0.16728726  1
  Ni  Ni2  1  1.00038187  0.00087943  0.33386470  1
  Ni  Ni3  1  1.00050893  0.33402532  1.00057279  1
  Ni  Ni4  1  0.16680795  0.49905108  0.16646858  1
  Ni  Ni5  1  1.00060155  0.33405721  0.33404175  1
  Ni  Ni6  1  0.00099771  0.66728604  0.00113128  1
  Ni  Ni7  1  0.16683269  0.83564251  0.16696307  1
  Ni  Ni8  1  0.99899517  0.66706553  0.33372138  1
  Ni  Ni9  1  0.33220872  1.00041274  0.00081467  1
  Fe  Fe10  1  0.50000734  0.16835722  0.16804542  1
  Ni  Ni11  1  0.33408870  0.00229306  0.33371099  1
  Ni  Ni12  1  0.33381946  0.33432193  0.00081099  1
  Ni  Ni13  1  0.50151070  0.50073944  0.16657284  1
  Ni  Ni14  1  0.33384136  0.33254461  0.33390697  1
  Ni  Ni15  1  0.33367401  0.66731353  1.00036166  1
  Ni  Ni16  1  0.50069737  0.83321930  0.16732392  1
  Cr  Cr17  1  0.33329937  0.66667214  0.33469790  1
  Cr  Cr18  1  0.66811359  0.00106785  1.00007677  1
  Ni  Ni19  1  0.83630508  0.16813150  0.16850716  1
  Ni  Ni20  1  0.66752204  0.00083274  0.33414358  1
  Ni  Ni21  1  0.66769161  0.33571704  1.00049512  1
  Ni  Ni22  1  0.83362138  0.50043564  0.16763717  1
  Ni  Ni23  1  0.66757792  0.33386283  0.33404892  1
  Ni  Ni24  1  0.66732503  0.66571412  0.00081115  1
  Ni  Ni25  1  0.83439090  0.83346970  0.16834718  1
  Ni  Ni26  1  0.66879323  0.66736173  0.33379847  1
  Ni  Ni27  1  0.16731082  0.16794765  0.50056464  1
  Ni  Ni28  1  1.00036839  0.00081161  0.66764395  1
  Ni  Ni29  1  0.16740607  0.16733918  0.83421060  1
  Ni  Ni30  1  0.16644366  0.49831797  0.50136926  1
  Ni  Ni31  1  1.00064352  0.33416390  0.66741964  1
  Ni  Ni32  1  0.16757197  0.50032930  0.83429113  1
  Fe  Fe33  1  0.16622012  0.83511360  0.50164238  1
  Ni  Ni34  1  0.00071580  0.66703518  0.66716922  1
  Ni  Ni35  1  0.16755755  0.83435101  0.83382818  1
  Ni  Ni36  1  0.50002389  0.16681090  0.49984827  1
  Ni  Ni37  1  0.33423400  0.00086195  0.66736221  1
  Ni  Ni38  1  0.49916152  0.16816731  0.83343814  1
  Ni  Ni39  1  0.50135006  0.50022383  0.50169735  1
  Ni  Ni40  1  0.33399469  0.33408226  0.66716434  1
  Ni  Ni41  1  0.50050987  0.50096417  0.83384534  1
  Ni  Ni42  1  0.50252737  0.83497834  0.50165354  1
  Ni  Ni43  1  0.33382913  0.66705826  0.66759270  1
  Ni  Ni44  1  0.49970697  0.83291772  0.83313968  1
  Ni  Ni45  1  0.83462254  0.16681511  0.50078364  1
  Ni  Ni46  1  0.66733346  0.00098432  0.66722239  1
  Ni  Ni47  1  0.83540815  0.16820439  0.83269857  1
  Ni  Ni48  1  0.83415823  0.50104765  0.50017712  1
  Ni  Ni49  1  0.66736028  0.33368252  0.66732730  1
  Ni  Ni50  1  0.83391764  0.50082177  0.83418362  1
  Ni  Ni51  1  0.83288018  0.83415995  0.50017532  1
  Ni  Ni52  1  0.66742129  0.66733689  0.66741600  1
  Ni  Ni53  1  0.83475782  0.83297973  0.83340513  1
" 