1183,Ni94Fe5Cr0_7,-239.4134836437, 180.80884697295,Ni94Fe5Cr0,"# generated using pymatgen
 data_CrFeNi25
_symmetry_space_group_name_H-M   'P 1'
_cell_length_a   7.45570194
_cell_length_b   7.45570194
_cell_length_c   10.54395480
_cell_angle_alpha   90.00000000
_cell_angle_beta   90.00000000
_cell_angle_gamma   90.00000000
_symmetry_Int_Tables_number   1
_chemical_formula_structural   CrFeNi25
_chemical_formula_sum   'Cr2 Fe2 Ni50'
_cell_volume   586.11199624
_cell_formula_units_Z   2
loop_
 _symmetry_equiv_pos_site_id
 _symmetry_equiv_pos_as_xyz
  1  'x, y, z'
loop_
 _atom_site_type_symbol
 _atom_site_label
 _atom_site_symmetry_multiplicity
 _atom_site_fract_x
 _atom_site_fract_y
 _atom_site_fract_z
 _atom_site_occupancy
  Ni  Ni0  1  0.00130105  0.99994952  1.00053524  1
  Ni  Ni1  1  0.16632655  0.16659605  0.16853067  1
  Ni  Ni2  1  0.00209349  0.99953158  0.33320841  1
  Ni  Ni3  1  0.99967220  0.33477163  1.00053522  1
  Ni  Ni4  1  0.16644056  0.50144212  0.16841758  1
  Ni  Ni5  1  0.00228306  0.33537503  0.33301711  1
  Ni  Ni6  1  0.99993874  0.66756353  0.00078460  1
  Ni  Ni7  1  0.16751797  0.83424704  0.16734121  1
  Ni  Ni8  1  1.00051686  0.66737541  0.33428335  1
  Ni  Ni9  1  0.33409421  0.99967689  0.00078498  1
  Ni  Ni10  1  0.50186186  0.16659605  0.16853067  1
  Ni  Ni11  1  0.33409421  0.00129806  0.33409341  1
  Cr  Cr12  1  0.33409421  0.33318997  0.00097486  1
  Ni  Ni13  1  0.50174785  0.50144212  0.16841758  1
  Ni  Ni14  1  0.33409421  0.33379862  0.33447513  1
  Fe  Fe15  1  0.33409421  0.66920658  0.00124868  1
  Ni  Ni16  1  0.50067044  0.83424704  0.16734121  1
  Ni  Ni17  1  0.33409421  0.66718705  0.33384746  1
  Ni  Ni18  1  0.66688736  0.99994952  1.00053524  1
  Ni  Ni19  1  0.83409421  0.16767000  0.16703505  1
  Ni  Ni20  1  0.66609492  0.99953158  0.33320841  1
  Ni  Ni21  1  0.66851621  0.33477163  1.00053522  1
  Ni  Ni22  1  0.83409421  0.50025253  0.16745427  1
  Ni  Ni23  1  0.66590535  0.33537503  0.33301711  1
  Ni  Ni24  1  0.66824967  0.66756353  0.00078460  1
  Ni  Ni25  1  0.83409421  0.83436053  0.16770047  1
  Ni  Ni26  1  0.66767155  0.66737541  0.33428335  1
  Ni  Ni27  1  0.16916835  0.16742763  0.50073472  1
  Ni  Ni28  1  0.00232295  0.99930226  0.66853906  1
  Ni  Ni29  1  0.16630808  0.16659837  0.83301867  1
  Ni  Ni30  1  0.16746019  0.50079291  0.50065454  1
  Ni  Ni31  1  0.00251213  0.33560426  0.66873019  1
  Ni  Ni32  1  0.16634434  0.50134292  0.83320994  1
  Ni  Ni33  1  0.16746377  0.83406264  0.50065374  1
  Ni  Ni34  1  0.99988410  0.66737522  0.66721490  1
  Ni  Ni35  1  0.16741927  0.83434569  0.83428621  1
  Ni  Ni36  1  0.49902007  0.16742763  0.50073472  1
  Ni  Ni37  1  0.33409421  0.00193302  0.66740471  1
  Ni  Ni38  1  0.50188033  0.16659837  0.83301867  1
  Ni  Ni39  1  0.50072822  0.50079291  0.50065454  1
  Ni  Ni40  1  0.33409421  0.33316747  0.66702248  1
  Ni  Ni41  1  0.50184407  0.50134292  0.83320994  1
  Ni  Ni42  1  0.50072465  0.83406264  0.50065374  1
  Fe  Fe43  1  0.33409421  0.66737388  0.66700003  1
  Ni  Ni44  1  0.50076914  0.83434569  0.83428621  1
  Cr  Cr45  1  0.83409421  0.16743130  0.50076861  1
  Ni  Ni46  1  0.66586546  0.99930226  0.66853906  1
  Ni  Ni47  1  0.83409421  0.16766987  0.83447623  1
  Ni  Ni48  1  0.83409421  0.50249674  0.50073469  1
  Ni  Ni49  1  0.66567628  0.33560426  0.66873019  1
  Ni  Ni50  1  0.83409421  0.50023289  0.83409332  1
  Ni  Ni51  1  0.83409421  0.83235370  0.50073475  1
  Ni  Ni52  1  0.66830431  0.66737522  0.66721490  1
  Ni  Ni53  1  0.83409421  0.83438037  0.83384729  1
" 