1935,Ni94Fe6_1,-226.378470396019, 142.592718692367,Ni94Fe6,"# generated using pymatgen
 data_Fe25Ni2
_symmetry_space_group_name_H-M   'P 1'
_cell_length_a   7.41174380
_cell_length_b   7.41174380
_cell_length_c   10.48178861
_cell_angle_alpha   90.00000000
_cell_angle_beta   90.00000000
_cell_angle_gamma   90.00000000
_symmetry_Int_Tables_number   1
_chemical_formula_structural   Fe25Ni2
_chemical_formula_sum   'Fe50 Ni4'
_cell_volume   575.80601170
_cell_formula_units_Z   2
loop_
 _symmetry_equiv_pos_site_id
 _symmetry_equiv_pos_as_xyz
  1  'x, y, z'
loop_
 _atom_site_type_symbol
 _atom_site_label
 _atom_site_symmetry_multiplicity
 _atom_site_fract_x
 _atom_site_fract_y
 _atom_site_fract_z
 _atom_site_occupancy
  Fe  Fe0  1  1.00352241  0.00405092  1.00332462  1
  Fe  Fe1  1  0.17072137  0.17090539  0.17004462  1
  Fe  Fe2  1  0.00388425  0.00440633  0.33715808  1
  Fe  Fe3  1  1.00328512  0.33607636  1.00332275  1
  Fe  Fe4  1  0.17070736  0.50351376  0.17080059  1
  Fe  Fe5  1  1.00367462  0.33638475  0.33706209  1
  Fe  Fe6  1  1.00297141  0.67106378  0.00382939  1
  Fe  Fe7  1  0.17030580  0.83678722  0.17039727  1
  Fe  Fe8  1  1.00372379  0.67040152  0.33706237  1
  Fe  Fe9  1  0.33728833  0.00395473  1.00322860  1
  Fe  Fe10  1  0.50415912  0.17006166  0.17082650  1
  Fe  Fe11  1  0.33760960  0.00438911  0.33715786  1
  Fe  Fe12  1  0.33741560  0.33607471  0.00409010  1
  Fe  Fe13  1  0.50322086  0.50340481  0.17071496  1
  Ni  Ni14  1  0.33608477  0.33803052  0.33740472  1
  Fe  Fe15  1  0.33782769  0.67116014  0.00373290  1
  Fe  Fe16  1  0.50447820  0.83772760  0.17029749  1
  Fe  Fe17  1  0.33773891  0.67046146  0.33706214  1
  Ni  Ni18  1  0.67073752  1.00350164  1.00265444  1
  Fe  Fe19  1  0.83631360  0.16964791  0.17039497  1
  Ni  Ni20  1  0.67103177  1.00309222  0.33769218  1
  Fe  Fe21  1  0.67048973  0.33661989  1.00363749  1
  Fe  Fe22  1  0.83725204  0.50381875  0.17030043  1
  Fe  Fe23  1  0.66974686  0.33651423  0.33715785  1
  Fe  Fe24  1  0.67039366  0.67092360  1.00362419  1
  Fe  Fe25  1  0.83642051  0.83771535  0.17040000  1
  Fe  Fe26  1  0.66972949  0.67025156  0.33715806  1
  Fe  Fe27  1  0.17071584  0.17081047  0.50418308  1
  Fe  Fe28  1  0.00423920  0.00405313  0.67071164  1
  Ni  Ni29  1  0.17040337  0.17029882  0.83717214  1
  Fe  Fe30  1  0.17070116  0.50351982  0.50331928  1
  Fe  Fe31  1  0.00395013  0.33673654  0.67081063  1
  Fe  Fe32  1  0.17040499  0.50309491  0.83707891  1
  Fe  Fe33  1  0.17030536  0.83687671  0.50382578  1
  Fe  Fe34  1  1.00363443  0.67040122  0.67030067  1
  Fe  Fe35  1  0.17039487  0.83759171  0.83696948  1
  Fe  Fe36  1  0.50382130  0.17039948  0.50299362  1
  Fe  Fe37  1  0.33656002  0.00395644  0.67080816  1
  Fe  Fe38  1  0.50341104  0.17009048  0.83737025  1
  Fe  Fe39  1  0.50331574  0.50341041  0.50351322  1
  Fe  Fe40  1  0.33674952  0.33673535  0.67004328  1
  Fe  Fe41  1  0.50296071  0.50305652  0.83696966  1
  Fe  Fe42  1  0.50413667  0.83738604  0.50351914  1
  Fe  Fe43  1  0.33716445  0.67049811  0.67039772  1
  Fe  Fe44  1  0.50337937  0.83804319  0.83736777  1
  Fe  Fe45  1  0.83665390  0.16998829  0.50342301  1
  Fe  Fe46  1  0.67039416  1.00364150  0.67030071  1
  Fe  Fe47  1  0.83737909  0.17008294  0.83736710  1
  Fe  Fe48  1  0.83716273  0.50381914  0.50392249  1
  Fe  Fe49  1  0.67049021  0.33734293  0.67039705  1
  Fe  Fe50  1  0.83782667  0.50306715  0.83696959  1
  Fe  Fe51  1  0.83675991  0.83737582  0.50341896  1
  Fe  Fe52  1  0.67039361  0.67020723  0.67040968  1
  Fe  Fe53  1  0.83742157  0.83804015  0.83736474  1
" 