5057,Ni94Fe5Cr0_10,-239.351293885034, 180.168922974842,Ni94Fe5Cr0,"# generated using pymatgen
 data_CrFeNi25
_symmetry_space_group_name_H-M   'P 1'
_cell_length_a   7.45628067
_cell_length_b   7.45628067
_cell_length_c   10.54477325
_cell_angle_alpha   90.00000000
_cell_angle_beta   90.00000000
_cell_angle_gamma   90.00000000
_symmetry_Int_Tables_number   1
_chemical_formula_structural   CrFeNi25
_chemical_formula_sum   'Cr2 Fe2 Ni50'
_cell_volume   586.24849457
_cell_formula_units_Z   2
loop_
 _symmetry_equiv_pos_site_id
 _symmetry_equiv_pos_as_xyz
  1  'x, y, z'
loop_
 _atom_site_type_symbol
 _atom_site_label
 _atom_site_symmetry_multiplicity
 _atom_site_fract_x
 _atom_site_fract_y
 _atom_site_fract_z
 _atom_site_occupancy
  Ni  Ni0  1  0.00170848  0.00148026  0.99971520  1
  Ni  Ni1  1  0.16749061  0.16712572  0.16717986  1
  Ni  Ni2  1  0.00148714  0.00150074  0.33485820  1
  Ni  Ni3  1  0.99961877  0.33319937  0.00165835  1
  Fe  Fe4  1  0.16768614  0.50042453  0.16768874  1
  Ni  Ni5  1  1.00039525  0.33395866  0.33392207  1
  Ni  Ni6  1  1.00062451  0.66748616  1.00061881  1
  Ni  Ni7  1  0.16925306  0.83465659  0.16694600  1
  Ni  Ni8  1  0.00140407  0.66670660  0.33493059  1
  Ni  Ni9  1  0.33375146  1.00039695  0.00079312  1
  Ni  Ni10  1  0.50012098  0.16798970  0.16690730  1
  Ni  Ni11  1  0.33407758  1.00049845  0.33384904  1
  Ni  Ni12  1  0.33483557  0.33327511  0.00149831  1
  Ni  Ni13  1  0.50098495  0.50062006  0.16717986  1
  Ni  Ni14  1  0.33415847  0.33395221  0.33415241  1
  Ni  Ni15  1  0.33491131  0.66849191  0.00165835  1
  Ni  Ni16  1  0.49858850  0.83355666  0.16735818  1
  Ni  Ni17  1  0.33415202  0.66771542  0.33392207  1
  Ni  Ni18  1  0.66670478  0.00140589  1.00004852  1
  Ni  Ni19  1  0.83455401  0.16952217  0.16735818  1
  Ni  Ni20  1  0.66660055  0.00151012  0.33482677  1
  Ni  Ni21  1  0.66771373  0.33435921  0.00079312  1
  Ni  Ni22  1  0.83345408  0.49885762  0.16694600  1
  Ni  Ni23  1  0.66761222  0.33403309  0.33384904  1
  Ni  Ni24  1  0.66663041  0.66640219  0.99971520  1
  Cr  Cr25  1  0.83398907  0.83412160  0.16739723  1
  Ni  Ni26  1  0.66660993  0.66662354  0.33485820  1
  Ni  Ni27  1  0.16731415  0.16754062  0.50090057  1
  Ni  Ni28  1  0.00094718  1.00070078  0.66759496  1
  Ni  Ni29  1  0.16672336  0.16565697  0.83408625  1
  Ni  Ni30  1  0.16754850  0.50056218  0.50032386  1
  Ni  Ni31  1  0.99994098  0.33329825  0.66658539  1
  Cr  Cr32  1  0.16780669  0.50030399  0.83414748  1
  Ni  Ni33  1  0.16737178  0.83406312  0.50095547  1
  Ni  Ni34  1  0.99994356  0.66816711  0.66661817  1
  Ni  Ni35  1  0.16758673  0.83616082  0.83426480  1
  Ni  Ni36  1  0.50051279  0.16759789  0.50093956  1
  Ni  Ni37  1  0.33373063  1.00061945  0.66752205  1
  Fe  Fe38  1  0.50101491  0.16709576  0.83405003  1
  Ni  Ni39  1  0.50057005  0.50079653  0.50090057  1
  Ni  Ni40  1  0.33473551  0.33337517  0.66651300  1
  Ni  Ni41  1  0.50245371  0.50138731  0.83408625  1
  Ni  Ni42  1  0.50068956  0.83377160  0.50031029  1
  Ni  Ni43  1  0.33481243  0.66816970  0.66658539  1
  Ni  Ni44  1  0.50086596  0.83335299  0.83449800  1
  Ni  Ni45  1  0.83433907  0.16742111  0.50031029  1
  Ni  Ni46  1  0.66748912  1.00062156  0.66729035  1
  Ni  Ni47  1  0.83475769  0.16724472  0.83449800  1
  Ni  Ni48  1  0.83404756  0.50073890  0.50095547  1
  Ni  Ni49  1  0.66749123  0.33438004  0.66752205  1
  Ni  Ni50  1  0.83194985  0.50052395  0.83426480  1
  Ni  Ni51  1  0.83410489  0.83400579  0.50090254  1
  Ni  Ni52  1  0.66740990  0.66716349  0.66759496  1
  Ni  Ni53  1  0.83371276  0.83439791  0.83413896  1
" 