4205,Ni94Fe2Cr2_16,-239.049801677766, 177.838392987513,Ni94Fe2Cr2,"# generated using pymatgen
 data_Cr2FeNi51
_symmetry_space_group_name_H-M   'P 1'
_cell_length_a   7.46132124
_cell_length_b   7.46132124
_cell_length_c   10.55190169
_cell_angle_alpha   90.00000000
_cell_angle_beta   90.00000000
_cell_angle_gamma   90.00000000
_symmetry_Int_Tables_number   1
_chemical_formula_structural   Cr2FeNi51
_chemical_formula_sum   'Cr2 Fe1 Ni51'
_cell_volume   587.43823844
_cell_formula_units_Z   1
loop_
 _symmetry_equiv_pos_site_id
 _symmetry_equiv_pos_as_xyz
  1  'x, y, z'
loop_
 _atom_site_type_symbol
 _atom_site_label
 _atom_site_symmetry_multiplicity
 _atom_site_fract_x
 _atom_site_fract_y
 _atom_site_fract_z
 _atom_site_occupancy
  Ni  Ni0  1  0.00038374  1.00031368  0.00062614  1
  Ni  Ni1  1  0.16553806  0.16695353  0.16673065  1
  Ni  Ni2  1  0.00038374  0.00050641  0.33371640  1
  Ni  Ni3  1  0.00038374  0.33364662  1.00030566  1
  Ni  Ni4  1  0.16696395  0.50065557  0.16672832  1
  Ni  Ni5  1  0.00038374  0.33363982  0.33347836  1
  Ni  Ni6  1  1.00038374  0.66718863  0.00039586  1
  Ni  Ni7  1  0.16681211  0.83353953  0.16730498  1
  Ni  Ni8  1  0.00038374  0.66700435  0.33395235  1
  Ni  Ni9  1  0.33263350  0.99944201  0.99950777  1
  Cr  Cr10  1  0.50038374  0.16746126  0.16761903  1
  Ni  Ni11  1  0.33172233  1.00026358  0.33370140  1
  Ni  Ni12  1  0.33280763  0.33473351  0.99955272  1
  Ni  Ni13  1  0.50038374  0.50199066  0.16733156  1
  Ni  Ni14  1  0.33259142  0.33481629  0.33483777  1
  Ni  Ni15  1  0.33367910  0.66693390  0.00059478  1
  Ni  Ni16  1  0.50038374  0.83217394  0.16616210  1
  Ni  Ni17  1  0.33285710  0.66608374  0.33260113  1
  Ni  Ni18  1  0.66813398  0.99944201  0.99950777  1
  Ni  Ni19  1  0.83522941  0.16695353  0.16673065  1
  Ni  Ni20  1  0.66904514  1.00026358  0.33370140  1
  Ni  Ni21  1  0.66795984  0.33473351  0.99955272  1
  Ni  Ni22  1  0.83380353  0.50065557  0.16672832  1
  Ni  Ni23  1  0.66817606  0.33481629  0.33483777  1
  Ni  Ni24  1  0.66708838  0.66693390  0.00059478  1
  Ni  Ni25  1  0.83395537  0.83353953  0.16730498  1
  Ni  Ni26  1  0.66791037  0.66608374  0.33260113  1
  Ni  Ni27  1  0.16713890  0.16697645  0.50047079  1
  Ni  Ni28  1  0.00038374  0.00046977  0.66680880  1
  Ni  Ni29  1  0.16743740  0.16667159  0.83394729  1
  Ni  Ni30  1  0.16696118  0.50061084  0.50070523  1
  Ni  Ni31  1  0.00038374  0.33356449  0.66736194  1
  Ni  Ni32  1  0.16728325  0.50092249  0.83372270  1
  Ni  Ni33  1  0.16524056  0.83356338  0.50038164  1
  Ni  Ni34  1  0.00038374  0.66711697  0.66681135  1
  Ni  Ni35  1  0.16611917  0.83356706  0.83349738  1
  Ni  Ni36  1  0.50038374  0.16869920  0.50058078  1
  Ni  Ni37  1  0.33260098  0.00146743  0.66791327  1
  Ni  Ni38  1  0.50038374  0.16777689  0.83327516  1
  Ni  Ni39  1  0.50038374  0.49869592  0.50014167  1
  Ni  Ni40  1  0.33376762  0.33373515  0.66680957  1
  Ni  Ni41  1  0.50038374  0.49952718  0.83372263  1
  Cr  Cr42  1  0.50038374  0.83370058  0.50057641  1
  Ni  Ni43  1  0.33273885  0.66591868  0.66789249  1
  Fe  Fe44  1  0.50038374  0.83353599  0.83405584  1
  Ni  Ni45  1  0.83362858  0.16697645  0.50047079  1
  Ni  Ni46  1  0.66816649  0.00146743  0.66791327  1
  Ni  Ni47  1  0.83333007  0.16667159  0.83394729  1
  Ni  Ni48  1  0.83380630  0.50061084  0.50070523  1
  Ni  Ni49  1  0.66699986  0.33373515  0.66680957  1
  Ni  Ni50  1  0.83348422  0.50092249  0.83372270  1
  Ni  Ni51  1  0.83552691  0.83356338  0.50038164  1
  Ni  Ni52  1  0.66802862  0.66591868  0.66789249  1
  Ni  Ni53  1  0.83464830  0.83356706  0.83349738  1
" 