8610,Ni94Fe6_12,-226.307841525909, 143.022513736616,Ni94Fe6,"# generated using pymatgen
 data_Fe25Ni2
_symmetry_space_group_name_H-M   'P 1'
_cell_length_a   7.40860109
_cell_length_b   7.40860109
_cell_length_c   10.47734414
_cell_angle_alpha   90.00000000
_cell_angle_beta   90.00000000
_cell_angle_gamma   90.00000000
_symmetry_Int_Tables_number   1
_chemical_formula_structural   Fe25Ni2
_chemical_formula_sum   'Fe50 Ni4'
_cell_volume   575.07386583
_cell_formula_units_Z   2
loop_
 _symmetry_equiv_pos_site_id
 _symmetry_equiv_pos_as_xyz
  1  'x, y, z'
loop_
 _atom_site_type_symbol
 _atom_site_label
 _atom_site_symmetry_multiplicity
 _atom_site_fract_x
 _atom_site_fract_y
 _atom_site_fract_z
 _atom_site_occupancy
  Fe  Fe0  1  0.00438264  0.00446453  0.00424305  1
  Ni  Ni1  1  0.17148891  0.16988889  0.17078432  1
  Fe  Fe2  1  0.00430183  0.00441512  0.33691587  1
  Fe  Fe3  1  0.00412815  0.33739856  0.00514447  1
  Fe  Fe4  1  0.16969067  0.50307397  0.17164187  1
  Fe  Fe5  1  0.00439955  0.33767040  0.33651757  1
  Fe  Fe6  1  1.00347957  0.66999684  0.00421670  1
  Fe  Fe7  1  0.16966694  0.83693130  0.17049687  1
  Fe  Fe8  1  1.00382083  0.66972678  0.33743405  1
  Fe  Fe9  1  0.33706371  0.00431313  0.00444264  1
  Fe  Fe10  1  0.50446226  0.17172011  0.17064371  1
  Fe  Fe11  1  0.33714638  0.00426301  0.33671637  1
  Fe  Fe12  1  0.33665101  0.33687618  0.00435581  1
  Fe  Fe13  1  0.50371827  0.50288421  0.17049675  1
  Fe  Fe14  1  0.33640322  0.33719833  0.33727498  1
  Fe  Fe15  1  0.33730257  0.67052597  1.00368810  1
  Fe  Fe16  1  0.50384221  0.83722491  0.17064267  1
  Fe  Fe17  1  0.33698328  0.67020416  0.33793712  1
  Fe  Fe18  1  0.67053236  1.00378717  1.00383461  1
  Fe  Fe19  1  0.83818276  0.17174653  0.17064422  1
  Fe  Fe20  1  0.67053177  1.00378333  0.33761204  1
  Fe  Fe21  1  0.67110500  0.33779741  1.00325854  1
  Ni  Ni22  1  0.83645601  0.50464910  0.17078390  1
  Fe  Fe23  1  0.67105813  0.33771585  0.33790635  1
  Fe  Fe24  1  0.67092853  0.67042118  0.00458353  1
  Fe  Fe25  1  0.83832180  0.83768011  0.17064318  1
  Fe  Fe26  1  0.67087988  0.67050725  0.33657325  1
  Fe  Fe27  1  0.17055846  0.17118937  0.50276968  1
  Fe  Fe28  1  1.00308922  0.00497581  0.67072169  1
  Fe  Fe29  1  0.17055986  0.17049878  0.83856042  1
  Ni  Ni30  1  0.17037749  0.50350897  0.50377559  1
  Fe  Fe31  1  1.00365077  0.33770564  0.67021430  1
  Fe  Fe32  1  0.17068472  0.50410672  0.83613651  1
  Fe  Fe33  1  0.17055462  0.83636933  0.50425620  1
  Fe  Fe34  1  1.00330637  0.66911329  0.67017806  1
  Fe  Fe35  1  0.17055593  0.83722349  0.83708224  1
  Fe  Fe36  1  0.50355902  0.17200173  0.50440985  1
  Fe  Fe37  1  0.33818325  0.00497648  0.67072138  1
  Fe  Fe38  1  0.50447313  0.17117490  0.83673948  1
  Fe  Fe39  1  0.50346665  0.50349056  0.50440118  1
  Fe  Fe40  1  0.33743128  0.33756001  0.67019286  1
  Fe  Fe41  1  0.50432249  0.50345516  0.83689491  1
  Fe  Fe42  1  0.50292883  0.83635760  0.50377336  1
  Fe  Fe43  1  0.33777629  0.66925900  0.67015638  1
  Fe  Fe44  1  0.50380274  0.83722548  0.83741789  1
  Fe  Fe45  1  0.83772675  0.17186863  0.50454951  1
  Fe  Fe46  1  0.67056232  0.00463140  0.67038317  1
  Fe  Fe47  1  0.83680888  0.17104136  0.83660219  1
  Fe  Fe48  1  0.83756551  0.50346718  0.50327061  1
  Ni  Ni49  1  0.67078456  0.33772757  0.67042560  1
  Fe  Fe50  1  0.83679270  0.50343310  0.83802130  1
  Fe  Fe51  1  0.83835279  0.83649177  0.50392112  1
  Fe  Fe52  1  0.67072514  0.66992541  0.67072217  1
  Fe  Fe53  1  0.83747526  0.83736015  0.83727302  1
" 