5873,Ni94Fe5Cr0_14,-239.420443056379, 181.085310515908,Ni94Fe5Cr0,"# generated using pymatgen
 data_CrFeNi25
_symmetry_space_group_name_H-M   'P 1'
_cell_length_a   7.45613482
_cell_length_b   7.45613482
_cell_length_c   10.54456699
_cell_angle_alpha   90.00000000
_cell_angle_beta   90.00000000
_cell_angle_gamma   90.00000000
_symmetry_Int_Tables_number   1
_chemical_formula_structural   CrFeNi25
_chemical_formula_sum   'Cr2 Fe2 Ni50'
_cell_volume   586.21409350
_cell_formula_units_Z   2
loop_
 _symmetry_equiv_pos_site_id
 _symmetry_equiv_pos_as_xyz
  1  'x, y, z'
loop_
 _atom_site_type_symbol
 _atom_site_label
 _atom_site_symmetry_multiplicity
 _atom_site_fract_x
 _atom_site_fract_y
 _atom_site_fract_z
 _atom_site_occupancy
  Ni  Ni0  1  0.00074731  0.00073180  1.00012189  1
  Ni  Ni1  1  0.16642853  0.16611815  0.16749824  1
  Ni  Ni2  1  0.00073887  0.00073180  0.33472030  1
  Ni  Ni3  1  0.99976232  0.33306068  0.99974634  1
  Cr  Cr4  1  0.16852255  0.50073180  0.16721533  1
  Ni  Ni5  1  0.99982804  0.33311059  0.33498769  1
  Ni  Ni6  1  0.99976232  0.66840291  0.99974634  1
  Ni  Ni7  1  0.16642853  0.83534545  0.16749824  1
  Ni  Ni8  1  0.99982804  0.66835300  0.33498769  1
  Ni  Ni9  1  0.33411754  0.00073180  0.00115522  1
  Ni  Ni10  1  0.50143867  0.16785324  0.16721691  1
  Ni  Ni11  1  0.33424688  0.00073180  0.33349695  1
  Ni  Ni12  1  0.33378112  0.33176556  1.00030789  1
  Ni  Ni13  1  0.50161513  0.50073180  0.16762092  1
  Ni  Ni14  1  0.33469520  0.33273415  0.33539715  1
  Ni  Ni15  1  0.33378112  0.66969804  1.00030789  1
  Ni  Ni16  1  0.50143867  0.83361036  0.16721691  1
  Ni  Ni17  1  0.33469520  0.66872945  0.33539715  1
  Ni  Ni18  1  0.66729469  0.00073180  1.00049793  1
  Ni  Ni19  1  0.83420522  0.16599922  0.16750045  1
  Ni  Ni20  1  0.66716646  0.00073180  0.33415528  1
  Ni  Ni21  1  0.66863746  0.33287287  0.00153758  1
  Fe  Fe22  1  0.83302421  0.50073180  0.16755116  1
  Ni  Ni23  1  0.66759916  0.33371066  0.33422370  1
  Ni  Ni24  1  0.66863746  0.66859073  0.00153758  1
  Ni  Ni25  1  0.83420522  0.83546438  0.16750045  1
  Ni  Ni26  1  0.66759916  0.66775294  0.33422370  1
  Ni  Ni27  1  0.16702909  0.16744531  0.50012523  1
  Fe  Fe28  1  0.00107159  0.00073180  0.66730800  1
  Ni  Ni29  1  0.16703252  0.16746908  0.83456464  1
  Ni  Ni30  1  0.16740971  0.50073180  0.50108065  1
  Ni  Ni31  1  1.00051607  0.33501811  0.66755664  1
  Ni  Ni32  1  0.16592935  0.50073180  0.83389438  1
  Ni  Ni33  1  0.16702909  0.83401829  0.50012523  1
  Ni  Ni34  1  1.00051607  0.66644549  0.66755664  1
  Ni  Ni35  1  0.16703252  0.83399452  0.83456464  1
  Ni  Ni36  1  0.50117557  0.16739463  0.50060928  1
  Ni  Ni37  1  0.33474752  0.00073180  0.66756056  1
  Ni  Ni38  1  0.50118401  0.16597898  0.83438423  1
  Ni  Ni39  1  0.50067585  0.50073180  0.50076595  1
  Ni  Ni40  1  0.33249909  0.33221136  0.66640967  1
  Cr  Cr41  1  0.50038234  0.50073180  0.83345974  1
  Ni  Ni42  1  0.50117557  0.83406897  0.50060928  1
  Ni  Ni43  1  0.33249909  0.66925224  0.66640967  1
  Ni  Ni44  1  0.50118401  0.83548462  0.83438423  1
  Ni  Ni45  1  0.83400003  0.16698285  0.50080431  1
  Ni  Ni46  1  0.66637421  0.00073180  0.66755137  1
  Ni  Ni47  1  0.83400101  0.16698501  0.83387812  1
  Ni  Ni48  1  0.83406349  0.50073180  0.49991248  1
  Ni  Ni49  1  0.66916658  0.33278819  0.66644026  1
  Ni  Ni50  1  0.83543007  0.50073180  0.83507236  1
  Ni  Ni51  1  0.83400003  0.83448074  0.50080431  1
  Ni  Ni52  1  0.66916658  0.66867541  0.66644026  1
  Ni  Ni53  1  0.83400101  0.83447859  0.83387812  1
" 