4165,Ni94Fe6_15,-226.287146234583, 142.05204106411,Ni94Fe6,"# generated using pymatgen
 data_Fe25Ni2
_symmetry_space_group_name_H-M   'P 1'
_cell_length_a   7.40553162
_cell_length_b   7.40553162
_cell_length_c   10.47300325
_cell_angle_alpha   90.00000000
_cell_angle_beta   90.00000000
_cell_angle_gamma   90.00000000
_symmetry_Int_Tables_number   1
_chemical_formula_structural   Fe25Ni2
_chemical_formula_sum   'Fe50 Ni4'
_cell_volume   574.35938195
_cell_formula_units_Z   2
loop_
 _symmetry_equiv_pos_site_id
 _symmetry_equiv_pos_as_xyz
  1  'x, y, z'
loop_
 _atom_site_type_symbol
 _atom_site_label
 _atom_site_symmetry_multiplicity
 _atom_site_fract_x
 _atom_site_fract_y
 _atom_site_fract_z
 _atom_site_occupancy
  Fe  Fe0  1  0.00416191  0.00416943  0.00415452  1
  Ni  Ni1  1  0.17082072  0.17082175  0.17081716  1
  Fe  Fe2  1  0.00415772  0.00415660  0.33748123  1
  Fe  Fe3  1  0.00416205  0.33747804  1.00414488  1
  Fe  Fe4  1  0.17082437  0.50414035  0.17081570  1
  Fe  Fe5  1  0.00415658  0.33748236  0.33749202  1
  Fe  Fe6  1  0.00416190  0.67081267  0.00415451  1
  Fe  Fe7  1  0.17081892  0.83749540  0.17082117  1
  Fe  Fe8  1  1.00415226  0.67082118  0.33748671  1
  Fe  Fe9  1  0.33748236  0.00416526  0.00415885  1
  Fe  Fe10  1  0.50413923  0.17082438  0.17081684  1
  Fe  Fe11  1  0.33748236  0.00415660  0.33748350  1
  Ni  Ni12  1  0.33748383  0.33748382  1.00415289  1
  Fe  Fe13  1  0.50414054  0.50414052  0.17081570  1
  Fe  Fe14  1  0.33748351  0.33748237  0.33747272  1
  Fe  Fe15  1  0.33748783  0.67081139  1.00415222  1
  Fe  Fe16  1  0.50414600  0.83749524  0.17082117  1
  Fe  Fe17  1  0.33748783  0.67082118  0.33748899  1
  Fe  Fe18  1  0.67081587  0.00416511  1.00414791  1
  Fe  Fe19  1  0.83749540  0.17081893  0.17081266  1
  Fe  Fe20  1  0.67082006  1.00415228  0.33748785  1
  Fe  Fe21  1  0.67081459  0.33748351  1.00414904  1
  Fe  Fe22  1  0.83749524  0.50414712  0.17082231  1
  Fe  Fe23  1  0.67082006  0.33748783  0.33748785  1
  Fe  Fe24  1  0.67081042  0.67081153  0.00415452  1
  Fe  Fe25  1  0.83749523  0.83749409  0.17082116  1
  Fe  Fe26  1  0.67082005  0.67082003  0.33748670  1
  Fe  Fe27  1  0.17081685  0.17082440  0.50414808  1
  Fe  Fe28  1  1.00414906  0.00416641  0.67082439  1
  Fe  Fe29  1  0.17081138  0.17082872  0.83749522  1
  Fe  Fe30  1  0.17081570  0.50415016  0.50415886  1
  Ni  Ni31  1  1.00415271  0.33748501  0.67082293  1
  Fe  Fe32  1  0.17081152  0.50413733  0.83748557  1
  Fe  Fe33  1  0.17082117  0.83748558  0.50415338  1
  Fe  Fe34  1  0.00415451  0.67081136  0.67081892  1
  Fe  Fe35  1  0.17081153  0.83749409  0.83748559  1
  Fe  Fe36  1  0.50415337  0.17081893  0.50415225  1
  Fe  Fe37  1  0.33747819  0.00415964  0.67081779  1
  Fe  Fe38  1  0.50415884  0.17082325  0.83749105  1
  Fe  Fe39  1  0.50415337  0.50415448  0.50415225  1
  Fe  Fe40  1  0.33747803  0.33748783  0.67082744  1
  Fe  Fe41  1  0.50415756  0.50414165  0.83749219  1
  Fe  Fe42  1  0.50415338  0.83748673  0.50415340  1
  Fe  Fe43  1  0.33747820  0.67081267  0.67081894  1
  Fe  Fe44  1  0.50416301  0.83749524  0.83748557  1
  Fe  Fe45  1  0.83748992  0.17082440  0.50416738  1
  Fe  Fe46  1  0.67083289  0.00416624  0.67082439  1
  Ni  Ni47  1  0.83748960  0.17082294  0.83748721  1
  Fe  Fe48  1  0.83749107  0.50415016  0.50415659  1
  Fe  Fe49  1  0.67083420  0.33748238  0.67082326  1
  Fe  Fe50  1  0.83749107  0.50414150  0.83748124  1
  Fe  Fe51  1  0.83748560  0.83748558  0.50415111  1
  Fe  Fe52  1  0.67082743  0.67081152  0.67081892  1
  Fe  Fe53  1  0.83748560  0.83749537  0.83748788  1
" 