6535,Ni94Fe2Cr2_17,-239.053240794734, 177.483015710286,Ni94Fe2Cr2,"# generated using pymatgen
 data_Cr2FeNi51
_symmetry_space_group_name_H-M   'P 1'
_cell_length_a   7.46099963
_cell_length_b   7.46099963
_cell_length_c   10.55144686
_cell_angle_alpha   90.00000000
_cell_angle_beta   90.00000000
_cell_angle_gamma   90.00000000
_symmetry_Int_Tables_number   1
_chemical_formula_structural   Cr2FeNi51
_chemical_formula_sum   'Cr2 Fe1 Ni51'
_cell_volume   587.36227962
_cell_formula_units_Z   1
loop_
 _symmetry_equiv_pos_site_id
 _symmetry_equiv_pos_as_xyz
  1  'x, y, z'
loop_
 _atom_site_type_symbol
 _atom_site_label
 _atom_site_symmetry_multiplicity
 _atom_site_fract_x
 _atom_site_fract_y
 _atom_site_fract_z
 _atom_site_occupancy
  Cr  Cr0  1  1.00039947  0.00041114  0.00040531  1
  Ni  Ni1  1  0.16830122  0.16834239  0.16848797  1
  Ni  Ni2  1  0.00144697  0.99936365  0.33324053  1
  Ni  Ni3  1  0.00041747  0.33526781  0.00040531  1
  Ni  Ni4  1  0.16705135  0.50053640  0.16684030  1
  Ni  Ni5  1  0.00139120  0.33471013  0.33256015  1
  Ni  Ni6  1  1.00027113  0.66555506  0.00040531  1
  Ni  Ni7  1  0.16847536  0.83233526  0.16825864  1
  Ni  Ni8  1  1.00031552  0.66712426  0.33364126  1
  Ni  Ni9  1  0.33525555  0.00053948  0.00040531  1
  Ni  Ni10  1  0.50044474  0.16692123  0.16706453  1
  Ni  Ni11  1  0.33368635  0.00049509  0.33364126  1
  Ni  Ni12  1  0.33403032  0.33389532  0.00040531  1
  Ni  Ni13  1  0.50026814  0.50054248  0.16774488  1
  Ni  Ni14  1  0.33378330  0.33369309  0.33389324  1
  Ni  Ni15  1  0.33402986  0.66678076  0.00040531  1
  Ni  Ni16  1  0.50027422  0.83375926  0.16684030  1
  Ni  Ni17  1  0.33376696  0.66704365  0.33363780  1
  Ni  Ni18  1  0.66554280  1.00039314  0.00040531  1
  Ni  Ni19  1  0.83247239  0.16833823  0.16806669  1
  Ni  Ni20  1  0.66610048  0.99941941  0.33256015  1
  Ni  Ni21  1  0.66676724  0.33404337  0.00040531  1
  Ni  Ni22  1  0.83388938  0.50036588  0.16706453  1
  Ni  Ni23  1  0.66601382  0.33479679  0.33284738  1
  Ni  Ni24  1  0.66691529  0.66678030  0.00040531  1
  Ni  Ni25  1  0.83246822  0.83250939  0.16848797  1
  Ni  Ni26  1  0.66711752  0.66702732  0.33389324  1
  Ni  Ni27  1  0.16927079  0.16760612  0.50040531  1
  Ni  Ni28  1  0.00144697  0.99936365  0.66757008  1
  Ni  Ni29  1  0.16830122  0.16834239  0.83232264  1
  Ni  Ni30  1  0.16629463  0.50057187  0.50040531  1
  Ni  Ni31  1  0.00139120  0.33471013  0.66825046  1
  Ni  Ni32  1  0.16705135  0.50053640  0.83397031  1
  Ni  Ni33  1  0.16779098  0.83301964  0.50040531  1
  Ni  Ni34  1  1.00031552  0.66712426  0.66716935  1
  Ni  Ni35  1  0.16847536  0.83233526  0.83255197  1
  Ni  Ni36  1  0.49882605  0.16618107  0.50040531  1
  Ni  Ni37  1  0.33368635  0.00049509  0.66716935  1
  Ni  Ni38  1  0.50044474  0.16692123  0.83374608  1
  Fe  Fe39  1  0.50002541  0.50078520  0.50040531  1
  Ni  Ni40  1  0.33378330  0.33369309  0.66691737  1
  Ni  Ni41  1  0.50026814  0.50054248  0.83306574  1
  Ni  Ni42  1  0.50023875  0.83451598  0.50040531  1
  Ni  Ni43  1  0.33376696  0.66704365  0.66717281  1
  Ni  Ni44  1  0.50027422  0.83375926  0.83397031  1
  Cr  Cr45  1  0.83344249  0.16736812  0.50040531  1
  Ni  Ni46  1  0.66610048  0.99941941  0.66825046  1
  Ni  Ni47  1  0.83247239  0.16833823  0.83274392  1
  Ni  Ni48  1  0.83462954  0.50198456  0.50040531  1
  Ni  Ni49  1  0.66601382  0.33479679  0.66796323  1
  Ni  Ni50  1  0.83388938  0.50036588  0.83374608  1
  Ni  Ni51  1  0.83320449  0.83153982  0.50040531  1
  Ni  Ni52  1  0.66711752  0.66702732  0.66691737  1
  Ni  Ni53  1  0.83246822  0.83250939  0.83232264  1
" 