602,Ni94Fe2Cr2_14,-239.047176856177, 177.955532152087,Ni94Fe2Cr2,"# generated using pymatgen
 data_Cr2FeNi51
_symmetry_space_group_name_H-M   'P 1'
_cell_length_a   7.46118028
_cell_length_b   7.46118028
_cell_length_c   10.55170234
_cell_angle_alpha   90.00000000
_cell_angle_beta   90.00000000
_cell_angle_gamma   90.00000000
_symmetry_Int_Tables_number   1
_chemical_formula_structural   Cr2FeNi51
_chemical_formula_sum   'Cr2 Fe1 Ni51'
_cell_volume   587.40494605
_cell_formula_units_Z   1
loop_
 _symmetry_equiv_pos_site_id
 _symmetry_equiv_pos_as_xyz
  1  'x, y, z'
loop_
 _atom_site_type_symbol
 _atom_site_label
 _atom_site_symmetry_multiplicity
 _atom_site_fract_x
 _atom_site_fract_y
 _atom_site_fract_z
 _atom_site_occupancy
  Ni  Ni0  1  1.00026338  1.00019272  0.00056515  1
  Ni  Ni1  1  0.16506196  0.16695859  0.16733894  1
  Ni  Ni2  1  0.00047140  0.00045612  0.33371385  1
  Ni  Ni3  1  0.00050719  0.33365340  0.00056344  1
  Ni  Ni4  1  0.16647955  0.50066789  0.16733288  1
  Ni  Ni5  1  0.00040904  0.33366014  0.33342019  1
  Ni  Ni6  1  1.00026468  0.66733494  1.00033358  1
  Ni  Ni7  1  0.16698930  0.83355604  0.16720946  1
  Ni  Ni8  1  0.00047414  0.66707034  0.33394198  1
  Ni  Ni9  1  0.33267590  0.99949064  0.99948766  1
  Cr  Cr10  1  0.50057378  0.16690007  0.16749383  1
  Ni  Ni11  1  0.33181671  0.00041648  0.33364382  1
  Ni  Ni12  1  0.33282456  0.33477557  0.99947229  1
  Ni  Ni13  1  0.50063992  0.50227873  0.16757656  1
  Ni  Ni14  1  0.33277778  0.33476797  0.33503865  1
  Ni  Ni15  1  0.33378534  0.66693459  0.00056452  1
  Ni  Ni16  1  0.50034265  0.83217127  0.16680955  1
  Ni  Ni17  1  0.33286886  0.66601983  0.33260108  1
  Ni  Ni18  1  0.66822915  0.99925493  0.99949541  1
  Ni  Ni19  1  0.83543772  0.16727343  0.16699854  1
  Ni  Ni20  1  0.66902664  0.00047397  0.33369577  1
  Ni  Ni21  1  0.66783641  0.33476746  0.99948200  1
  Ni  Ni22  1  0.83405054  0.50035372  0.16699627  1
  Ni  Ni23  1  0.66797942  0.33473146  0.33470723  1
  Ni  Ni24  1  0.66712869  0.66717802  0.00056512  1
  Ni  Ni25  1  0.83388392  0.83355568  0.16790575  1
  Ni  Ni26  1  0.66789951  0.66590683  0.33259819  1
  Ni  Ni27  1  0.16638871  0.16671450  0.50019058  1
  Ni  Ni28  1  0.00048273  0.00054004  0.66691230  1
  Ni  Ni29  1  0.16667137  0.16696630  0.83365118  1
  Ni  Ni30  1  0.16622320  0.50088111  0.50041151  1
  Ni  Ni31  1  0.00041140  0.33358099  0.66719545  1
  Ni  Ni32  1  0.16651923  0.50063293  0.83343703  1
  Ni  Ni33  1  0.16603191  0.83357690  0.50041369  1
  Ni  Ni34  1  0.00049102  0.66705104  0.66692141  1
  Ni  Ni35  1  0.16700792  0.83357787  0.83355580  1
  Ni  Ni36  1  0.50095122  0.16807715  0.50061460  1
  Ni  Ni37  1  0.33278046  0.00140591  0.66801689  1
  Ni  Ni38  1  0.50063579  0.16679869  0.83299539  1
  Ni  Ni39  1  0.50095393  0.49933522  0.50017939  1
  Ni  Ni40  1  0.33378285  0.33373757  0.66664312  1
  Ni  Ni41  1  0.50063430  0.50064395  0.83342574  1
  Cr  Cr42  1  0.49952488  0.83370272  0.50018652  1
  Ni  Ni43  1  0.33293856  0.66602660  0.66802218  1
  Ni  Ni44  1  0.50034937  0.83374164  0.83417959  1
  Ni  Ni45  1  0.83389130  0.16800263  0.50018602  1
  Ni  Ni46  1  0.66799712  0.00151536  0.66801767  1
  Ni  Ni47  1  0.83385996  0.16726889  0.83398614  1
  Ni  Ni48  1  0.83406591  0.49956105  0.50041689  1
  Ni  Ni49  1  0.66699599  0.33373915  0.66695234  1
  Ni  Ni50  1  0.83402045  0.50033019  0.83376569  1
  Fe  Fe51  1  0.83523231  0.83353469  0.50050912  1
  Ni  Ni52  1  0.66783160  0.66590823  0.66803144  1
  Ni  Ni53  1  0.83386064  0.83358013  0.83286292  1
" 