5152,Ni94Fe6_5,-226.252680068339, 141.77512902915,Ni94Fe6,"# generated using pymatgen
 data_Fe25Ni2
_symmetry_space_group_name_H-M   'P 1'
_cell_length_a   7.40816052
_cell_length_b   7.40816052
_cell_length_c   10.47672108
_cell_angle_alpha   90.00000000
_cell_angle_beta   90.00000000
_cell_angle_gamma   90.00000000
_symmetry_Int_Tables_number   1
_chemical_formula_structural   Fe25Ni2
_chemical_formula_sum   'Fe50 Ni4'
_cell_volume   574.97127686
_cell_formula_units_Z   2
loop_
 _symmetry_equiv_pos_site_id
 _symmetry_equiv_pos_as_xyz
  1  'x, y, z'
loop_
 _atom_site_type_symbol
 _atom_site_label
 _atom_site_symmetry_multiplicity
 _atom_site_fract_x
 _atom_site_fract_y
 _atom_site_fract_z
 _atom_site_occupancy
  Fe  Fe0  1  1.00386830  0.00397496  1.00365542  1
  Fe  Fe1  1  0.17178343  0.17029611  0.17088168  1
  Fe  Fe2  1  0.00466856  1.00317394  0.33741950  1
  Fe  Fe3  1  0.00397589  0.33730504  1.00376262  1
  Fe  Fe4  1  0.17081441  0.50358967  0.17077457  1
  Fe  Fe5  1  0.00470606  0.33725849  0.33730780  1
  Fe  Fe6  1  0.00397574  0.67064319  0.00471487  1
  Fe  Fe7  1  0.17137248  0.83803630  0.17134048  1
  Ni  Ni8  1  1.00327640  0.66982290  0.33743208  1
  Fe  Fe9  1  0.33765212  0.00431958  0.00505508  1
  Ni  Ni10  1  0.50383510  0.17062231  0.17089602  1
  Ni  Ni11  1  0.33826925  0.00481583  0.33728488  1
  Fe  Fe12  1  0.33765539  0.33707158  0.00421532  1
  Fe  Fe13  1  0.50407997  0.50318141  0.17116199  1
  Fe  Fe14  1  0.33726556  0.33735303  0.33730451  1
  Fe  Fe15  1  0.33731086  0.67053242  1.00365538  1
  Fe  Fe16  1  0.50362847  0.83855516  0.17077392  1
  Fe  Fe17  1  0.33685106  0.67099168  0.33775726  1
  Fe  Fe18  1  0.67040273  0.00431991  0.00421575  1
  Fe  Fe19  1  0.83651247  0.17074797  0.17042905  1
  Fe  Fe20  1  0.67044984  1.00358907  0.33685482  1
  Fe  Fe21  1  0.67029240  0.33696423  0.00432244  1
  Fe  Fe22  1  0.83702573  0.50358615  0.17088322  1
  Fe  Fe23  1  0.66995236  0.33730592  0.33730524  1
  Fe  Fe24  1  0.67063662  0.67064001  1.00376263  1
  Fe  Fe25  1  0.83692204  0.83758546  0.17088247  1
  Fe  Fe26  1  0.67035531  0.67102961  0.33775747  1
  Fe  Fe27  1  0.17171719  0.17102668  0.50384234  1
  Fe  Fe28  1  1.00386836  0.00407982  0.67084857  1
  Fe  Fe29  1  0.17053978  0.17064004  0.83720040  1
  Fe  Fe30  1  0.17087631  0.50431872  0.50373489  1
  Fe  Fe31  1  0.00397596  0.33709529  0.67085304  1
  Fe  Fe32  1  0.17053300  0.50397558  0.83741515  1
  Fe  Fe33  1  0.17137325  0.83657749  0.50327736  1
  Fe  Fe34  1  0.00397578  0.67074816  0.67001244  1
  Fe  Fe35  1  0.17064401  0.83730779  0.83730773  1
  Fe  Fe36  1  0.50363280  0.17098495  0.50289444  1
  Fe  Fe37  1  0.33720334  0.00397570  0.67001226  1
  Fe  Fe38  1  0.50397189  0.17053247  0.83814830  1
  Ni  Ni39  1  0.50385377  0.50397429  0.50361433  1
  Fe  Fe40  1  0.33765429  0.33775833  0.67040139  1
  Fe  Fe41  1  0.50397526  0.50407977  0.83646791  1
  Fe  Fe42  1  0.50362906  0.83696703  0.50384246  1
  Fe  Fe43  1  0.33775859  0.67018957  0.67050859  1
  Fe  Fe44  1  0.50397192  0.83731119  0.83730776  1
  Fe  Fe45  1  0.83657748  0.17147769  0.50429398  1
  Fe  Fe46  1  0.67085190  0.00397552  0.67085304  1
  Fe  Fe47  1  0.83741174  0.17064339  0.83720045  1
  Fe  Fe48  1  0.83696243  0.50431552  0.50362623  1
  Fe  Fe49  1  0.67029275  0.33765108  0.67029361  1
  Fe  Fe50  1  0.83741514  0.50397562  0.83741516  1
  Fe  Fe51  1  0.83692113  0.83612679  0.50373462  1
  Fe  Fe52  1  0.67018842  0.67029680  0.67040095  1
  Fe  Fe53  1  0.83730749  0.83730442  0.83730778  1
" 