1753,Ni94Fe2Cr2_15,-239.025303493911, 177.487878611771,Ni94Fe2Cr2,"# generated using pymatgen
 data_Cr2FeNi51
_symmetry_space_group_name_H-M   'P 1'
_cell_length_a   7.46160319
_cell_length_b   7.46160319
_cell_length_c   10.55230042
_cell_angle_alpha   90.00000000
_cell_angle_beta   90.00000000
_cell_angle_gamma   90.00000000
_symmetry_Int_Tables_number   1
_chemical_formula_structural   Cr2FeNi51
_chemical_formula_sum   'Cr2 Fe1 Ni51'
_cell_volume   587.50483572
_cell_formula_units_Z   1
loop_
 _symmetry_equiv_pos_site_id
 _symmetry_equiv_pos_as_xyz
  1  'x, y, z'
loop_
 _atom_site_type_symbol
 _atom_site_label
 _atom_site_symmetry_multiplicity
 _atom_site_fract_x
 _atom_site_fract_y
 _atom_site_fract_z
 _atom_site_occupancy
  Ni  Ni0  1  0.00158270  0.99844860  0.00129335  1
  Ni  Ni1  1  0.16710918  0.16695885  0.16705928  1
  Ni  Ni2  1  0.00044956  1.00026848  0.33391438  1
  Fe  Fe3  1  0.00125015  0.33458348  0.00120329  1
  Ni  Ni4  1  0.16726627  0.50059960  0.16685703  1
  Ni  Ni5  1  0.99934381  0.33267714  0.33216913  1
  Ni  Ni6  1  1.00028165  0.66785893  1.00019599  1
  Ni  Ni7  1  0.16721002  0.83357059  0.16734663  1
  Ni  Ni8  1  0.99914206  0.66819719  0.33283617  1
  Ni  Ni9  1  0.33301234  0.00097031  1.00019491  1
  Ni  Ni10  1  0.50055938  0.16685421  0.16687511  1
  Ni  Ni11  1  0.33338194  0.00076297  0.33356870  1
  Ni  Ni12  1  0.33452560  0.33361498  1.00019599  1
  Ni  Ni13  1  0.50023725  0.50054336  0.16734663  1
  Ni  Ni14  1  0.33486385  0.33247540  0.33283617  1
  Ni  Ni15  1  0.33319287  0.66652620  0.00042908  1
  Ni  Ni16  1  0.50036318  0.83369652  0.16677573  1
  Ni  Ni17  1  0.33454540  0.66787873  0.33243081  1
  Ni  Ni18  1  0.66649894  0.99983227  0.00132799  1
  Ni  Ni19  1  0.83345186  0.16678520  0.16726063  1
  Ni  Ni20  1  0.66726215  0.00059549  0.33333737  1
  Ni  Ni21  1  0.66511527  0.33491603  0.00129335  1
  Ni  Ni22  1  0.83362552  0.50044251  0.16705928  1
  Ni  Ni23  1  0.66693515  0.33378289  0.33391438  1
  Ni  Ni24  1  0.66763698  0.66634568  1.00019491  1
  Ni  Ni25  1  0.83352088  0.83389271  0.16687511  1
  Ni  Ni26  1  0.66742963  0.66671528  0.33356870  1
  Ni  Ni27  1  0.16689789  0.16565446  0.50056404  1
  Ni  Ni28  1  0.00145252  0.99929461  0.66598151  1
  Ni  Ni29  1  0.16863432  0.16692454  0.83344360  1
  Cr  Cr30  1  0.16743147  0.50076480  0.49996681  1
  Ni  Ni31  1  0.00036714  0.33370047  0.66770873  1
  Ni  Ni32  1  0.16729861  0.50063194  0.83389945  1
  Ni  Ni33  1  0.16732005  0.83517994  0.50033540  1
  Ni  Ni34  1  0.99928729  0.66815066  0.66803041  1
  Ni  Ni35  1  0.16721598  0.83356108  0.83342917  1
  Ni  Ni36  1  0.50055188  0.16672823  0.50057153  1
  Ni  Ni37  1  0.33339396  0.00067909  0.66733338  1
  Ni  Ni38  1  0.49896210  0.16686793  0.83366682  1
  Ni  Ni39  1  0.50184660  0.50065338  0.50033540  1
  Ni  Ni40  1  0.33481733  0.33262062  0.66803041  1
  Ni  Ni41  1  0.50022775  0.50054931  0.83342917  1
  Ni  Ni42  1  0.50037581  0.83370914  0.50033515  1
  Ni  Ni43  1  0.33448911  0.66782245  0.66817191  1
  Ni  Ni44  1  0.50035211  0.83368544  0.83398026  1
  Ni  Ni45  1  0.83364901  0.16698235  0.50013443  1
  Ni  Ni46  1  0.66621513  0.99954847  0.66646579  1
  Cr  Cr47  1  0.83297225  0.16630558  0.83396641  1
  Ni  Ni48  1  0.83232112  0.50023123  0.50056404  1
  Ni  Ni49  1  0.66596128  0.33478585  0.66598151  1
  Ni  Ni50  1  0.83359120  0.50196765  0.83344360  1
  Ni  Ni51  1  0.83339490  0.83388521  0.50057153  1
  Ni  Ni52  1  0.66734575  0.66672729  0.66733338  1
  Ni  Ni53  1  0.83353460  0.83229544  0.83366682  1
" 