813,Ni94Fe6_2,-226.276733179702, 143.5654447763,Ni94Fe6,"# generated using pymatgen
 data_Fe25Ni2
_symmetry_space_group_name_H-M   'P 1'
_cell_length_a   7.40857182
_cell_length_b   7.40857182
_cell_length_c   10.47730275
_cell_angle_alpha   90.00000000
_cell_angle_beta   90.00000000
_cell_angle_gamma   90.00000000
_symmetry_Int_Tables_number   1
_chemical_formula_structural   Fe25Ni2
_chemical_formula_sum   'Fe50 Ni4'
_cell_volume   575.06704990
_cell_formula_units_Z   2
loop_
 _symmetry_equiv_pos_site_id
 _symmetry_equiv_pos_as_xyz
  1  'x, y, z'
loop_
 _atom_site_type_symbol
 _atom_site_label
 _atom_site_symmetry_multiplicity
 _atom_site_fract_x
 _atom_site_fract_y
 _atom_site_fract_z
 _atom_site_occupancy
  Fe  Fe0  1  0.00463237  0.00454498  0.00403458  1
  Fe  Fe1  1  0.17080940  0.17089850  0.17024424  1
  Fe  Fe2  1  1.00334802  1.00326062  0.33719174  1
  Fe  Fe3  1  0.00422723  0.33756442  1.00366423  1
  Fe  Fe4  1  0.17098610  0.50357410  0.17032930  1
  Fe  Fe5  1  1.00325777  0.33796833  0.33727962  1
  Fe  Fe6  1  0.00435105  0.66973052  1.00357691  1
  Fe  Fe7  1  0.17052644  0.83736655  0.17061316  1
  Fe  Fe8  1  1.00338078  0.67061059  0.33728231  1
  Fe  Fe9  1  0.33728240  0.00451221  1.00394402  1
  Fe  Fe10  1  0.50357524  0.17089941  0.17084169  1
  Fe  Fe11  1  0.33816247  1.00354194  0.33764941  1
  Ni  Ni12  1  0.33696100  0.33706479  1.00353226  1
  Fe  Fe13  1  0.50385923  0.50403376  0.17061316  1
  Fe  Fe14  1  0.33816354  0.33759581  0.33696151  1
  Fe  Fe15  1  0.33719227  0.67013348  0.00394682  1
  Fe  Fe16  1  0.50431889  0.83690689  0.17089703  1
  Fe  Fe17  1  0.33775951  0.67070072  0.33727950  1
  Fe  Fe18  1  0.66992466  0.00463522  0.00394671  1
  Fe  Fe19  1  0.83745380  0.17043919  0.17061316  1
  Fe  Fe20  1  0.67032857  1.00366576  0.33756209  1
  Fe  Fe21  1  0.67032795  0.33747482  1.00357576  1
  Fe  Fe22  1  0.83699358  0.50431776  0.17038464  1
  Fe  Fe23  1  0.67041817  0.33756504  0.33765057  1
  Fe  Fe24  1  0.67029718  0.66972945  0.00426481  1
  Fe  Fe25  1  0.83699449  0.83708359  0.17098208  1
  Ni  Ni26  1  0.67082820  0.67093199  0.33769407  1
  Fe  Fe27  1  0.17117888  0.17061573  0.50394402  1
  Fe  Fe28  1  0.00403321  1.00385978  0.67061316  1
  Fe  Fe29  1  0.17020860  0.17149580  0.83764941  1
  Fe  Fe30  1  0.17130188  0.50325799  0.50394671  1
  Fe  Fe31  1  1.00357356  0.33765222  0.67089703  1
  Fe  Fe32  1  0.17033243  0.50366190  0.83756209  1
  Fe  Fe33  1  0.17121164  0.83796571  0.50403458  1
  Fe  Fe34  1  1.00375025  0.67032782  0.67098208  1
  Fe  Fe35  1  0.16992728  0.83668135  0.83719174  1
  Ni  Ni36  1  0.50373146  0.17029434  0.50353226  1
  Fe  Fe37  1  0.33756517  0.00414274  0.67024424  1
  Fe  Fe38  1  0.50426248  0.17149688  0.83696151  1
  Fe  Fe39  1  0.50414149  0.50366128  0.50357576  1
  Fe  Fe40  1  0.33756608  0.33690857  0.67084169  1
  Fe  Fe41  1  0.50423171  0.50375150  0.83765057  1
  Fe  Fe42  1  0.50423109  0.83756056  0.50366423  1
  Fe  Fe43  1  0.33710585  0.67078714  0.67061316  1
  Fe  Fe44  1  0.50463500  0.83659111  0.83727962  1
  Fe  Fe45  1  0.83680014  0.17052561  0.50394682  1
  Fe  Fe46  1  0.67024077  0.00431943  0.67032930  1
  Fe  Fe47  1  0.83736738  0.17109285  0.83727950  1
  Fe  Fe48  1  0.83639611  0.50363051  0.50426481  1
  Fe  Fe49  1  0.67070043  0.33719256  0.67061316  1
  Ni  Ni50  1  0.83759865  0.50416153  0.83769407  1
  Fe  Fe51  1  0.83639719  0.83768439  0.50357691  1
  Fe  Fe52  1  0.67098442  0.67032691  0.67038464  1
  Fe  Fe53  1  0.83727726  0.83671411  0.83728231  1
" 