3600,Ni94Fe2Cr2_2,-239.049359168464, 178.238389436425,Ni94Fe2Cr2,"# generated using pymatgen
 data_Cr2FeNi51
_symmetry_space_group_name_H-M   'P 1'
_cell_length_a   7.46149913
_cell_length_b   7.46149913
_cell_length_c   10.55215327
_cell_angle_alpha   90.00000000
_cell_angle_beta   90.00000000
_cell_angle_gamma   90.00000000
_symmetry_Int_Tables_number   1
_chemical_formula_structural   Cr2FeNi51
_chemical_formula_sum   'Cr2 Fe1 Ni51'
_cell_volume   587.48025660
_cell_formula_units_Z   1
loop_
 _symmetry_equiv_pos_site_id
 _symmetry_equiv_pos_as_xyz
  1  'x, y, z'
loop_
 _atom_site_type_symbol
 _atom_site_label
 _atom_site_symmetry_multiplicity
 _atom_site_fract_x
 _atom_site_fract_y
 _atom_site_fract_z
 _atom_site_occupancy
  Ni  Ni0  1  0.99881485  0.00076800  0.99932094  1
  Ni  Ni1  1  0.16689401  0.16881770  0.16681552  1
  Ni  Ni2  1  0.99906633  0.00104034  0.33434235  1
  Ni  Ni3  1  0.99992770  0.33422457  0.00060093  1
  Ni  Ni4  1  0.16692575  0.49867629  0.16712534  1
  Ni  Ni5  1  1.00020182  0.33395019  0.33323432  1
  Ni  Ni6  1  1.00013470  0.66613500  0.99934251  1
  Cr  Cr7  1  0.16704970  0.83400256  0.16720601  1
  Ni  Ni8  1  0.99941277  0.66614391  0.33467371  1
  Ni  Ni9  1  0.33424650  0.00183483  0.00038456  1
  Ni  Ni10  1  0.50052178  0.16717027  0.16690969  1
  Ni  Ni11  1  0.33498863  0.00119856  0.33434032  1
  Ni  Ni12  1  0.33424037  0.33424375  1.00037053  1
  Ni  Ni13  1  0.50048385  0.50015034  0.16684967  1
  Ni  Ni14  1  0.33401759  0.33394774  0.33323577  1
  Ni  Ni15  1  0.33287943  0.66504686  0.00040007  1
  Ni  Ni16  1  0.50191295  0.83373919  0.16724572  1
  Ni  Ni17  1  0.33465692  0.66598849  0.33465522  1
  Ni  Ni18  1  0.66807115  0.00207706  0.00143167  1
  Ni  Ni19  1  0.83370045  0.16733000  0.16713857  1
  Ni  Ni20  1  0.66704966  0.00038928  0.33358800  1
  Ni  Ni21  1  0.66696135  0.33286957  1.00014140  1
  Ni  Ni22  1  0.83373406  0.49998466  0.16707064  1
  Ni  Ni23  1  0.66689415  0.33361860  0.33382648  1
  Fe  Fe24  1  0.66797269  0.66592160  0.00113087  1
  Ni  Ni25  1  0.83211647  0.83373690  0.16680595  1
  Ni  Ni26  1  0.66705154  0.66709955  0.33291204  1
  Ni  Ni27  1  0.16689045  0.16716436  0.50014176  1
  Ni  Ni28  1  1.00011862  1.00006597  0.66750510  1
  Ni  Ni29  1  0.16686751  0.16719327  0.83414804  1
  Ni  Ni30  1  0.16689186  0.50013038  0.50014683  1
  Ni  Ni31  1  1.00027451  0.33394695  0.66727244  1
  Ni  Ni32  1  0.16690251  0.50020457  0.83383894  1
  Ni  Ni33  1  0.16706009  0.83381995  0.50080171  1
  Ni  Ni34  1  0.00042587  0.66710057  0.66717571  1
  Ni  Ni35  1  0.16553859  0.83370412  0.83342468  1
  Ni  Ni36  1  0.50040524  0.16716679  0.50059989  1
  Ni  Ni37  1  0.33291905  0.00118938  0.66641390  1
  Ni  Ni38  1  0.50051531  0.16869991  0.83363294  1
  Ni  Ni39  1  0.50064493  0.50036956  0.50059339  1
  Ni  Ni40  1  0.33388131  0.33394605  0.66750424  1
  Ni  Ni41  1  0.50037412  0.49852530  0.83360296  1
  Ni  Ni42  1  0.50047554  0.83357924  0.49993752  1
  Ni  Ni43  1  0.33266816  0.66599098  0.66613679  1
  Cr  Cr44  1  0.50019634  0.83389098  0.83377538  1
  Ni  Ni45  1  0.83381804  0.16733183  0.50037345  1
  Ni  Ni46  1  0.66807611  0.00128580  0.66613061  1
  Ni  Ni47  1  0.83374173  0.16733441  0.83362303  1
  Ni  Ni48  1  0.83357779  0.50020769  0.50037015  1
  Ni  Ni49  1  0.66696190  0.33364119  0.66717595  1
  Ni  Ni50  1  0.83385788  0.49993119  0.83362007  1
  Ni  Ni51  1  0.83358170  0.83357881  0.50036679  1
  Ni  Ni52  1  0.66806542  0.66615690  0.66681151  1
  Ni  Ni53  1  0.83541988  0.83381563  0.83385500  1
" 