3086,Ni94Fe2Cr2_7,-239.033752419003, 176.857027994735,Ni94Fe2Cr2,"# generated using pymatgen
 data_Cr2FeNi51
_symmetry_space_group_name_H-M   'P 1'
_cell_length_a   7.46160142
_cell_length_b   7.46160142
_cell_length_c   10.55229792
_cell_angle_alpha   90.00000000
_cell_angle_beta   90.00000000
_cell_angle_gamma   90.00000000
_symmetry_Int_Tables_number   1
_chemical_formula_structural   Cr2FeNi51
_chemical_formula_sum   'Cr2 Fe1 Ni51'
_cell_volume   587.50441713
_cell_formula_units_Z   1
loop_
 _symmetry_equiv_pos_site_id
 _symmetry_equiv_pos_as_xyz
  1  'x, y, z'
loop_
 _atom_site_type_symbol
 _atom_site_label
 _atom_site_symmetry_multiplicity
 _atom_site_fract_x
 _atom_site_fract_y
 _atom_site_fract_z
 _atom_site_occupancy
  Ni  Ni0  1  0.00042766  0.00036495  0.00072845  1
  Ni  Ni1  1  0.16722350  0.16540003  0.16703161  1
  Ni  Ni2  1  0.00042766  0.00036495  0.33333477  1
  Ni  Ni3  1  1.00010682  0.33123846  0.99814933  1
  Cr  Cr4  1  0.16838788  0.50036495  0.16703161  1
  Ni  Ni5  1  1.00010682  0.33123846  0.33591390  1
  Ni  Ni6  1  1.00010682  0.66949144  0.99814933  1
  Ni  Ni7  1  0.16722350  0.83532987  0.16703161  1
  Ni  Ni8  1  1.00010682  0.66949144  0.33591390  1
  Ni  Ni9  1  0.33358127  0.00036495  0.00050174  1
  Ni  Ni10  1  0.50050662  0.16652946  0.16703161  1
  Ni  Ni11  1  0.33358127  0.00036495  0.33356149  1
  Ni  Ni12  1  0.33500443  0.33247894  0.99934213  1
  Ni  Ni13  1  0.50023387  0.50036495  0.16703161  1
  Ni  Ni14  1  0.33500443  0.33247894  0.33472109  1
  Ni  Ni15  1  0.33500443  0.66825096  0.99934213  1
  Ni  Ni16  1  0.50050662  0.83420044  0.16703161  1
  Ni  Ni17  1  0.33500443  0.66825096  0.33472109  1
  Ni  Ni18  1  0.66708154  0.00036495  0.99979133  1
  Ni  Ni19  1  0.83336330  0.16512855  0.16703161  1
  Ni  Ni20  1  0.66708154  0.00036495  0.33427190  1
  Ni  Ni21  1  0.66598391  0.33282006  0.99971212  1
  Cr  Cr22  1  0.83246215  0.50036495  0.16703161  1
  Ni  Ni23  1  0.66598391  0.33282006  0.33435111  1
  Ni  Ni24  1  0.66598391  0.66790983  0.99971212  1
  Ni  Ni25  1  0.83336330  0.83560135  0.16703161  1
  Ni  Ni26  1  0.66598391  0.66790983  0.33435111  1
  Ni  Ni27  1  0.16721114  0.16685728  0.50011922  1
  Ni  Ni28  1  0.00116888  0.00036495  0.66703161  1
  Ni  Ni29  1  0.16721114  0.16685728  0.83394401  1
  Ni  Ni30  1  0.16704661  0.50036495  0.50066248  1
  Ni  Ni31  1  0.99982406  0.33312340  0.66703161  1
  Ni  Ni32  1  0.16704661  0.50036495  0.83340075  1
  Ni  Ni33  1  0.16721114  0.83387262  0.50011922  1
  Ni  Ni34  1  0.99982406  0.66760650  0.66703161  1
  Ni  Ni35  1  0.16721114  0.83387262  0.83394401  1
  Ni  Ni36  1  0.50027939  0.16676261  0.50040302  1
  Ni  Ni37  1  0.33273120  0.00036495  0.66703161  1
  Ni  Ni38  1  0.50027939  0.16676261  0.83366021  1
  Ni  Ni39  1  0.50035858  0.50036495  0.49987966  1
  Ni  Ni40  1  0.33425401  0.33330361  0.66703161  1
  Ni  Ni41  1  0.50035858  0.50036495  0.83418357  1
  Ni  Ni42  1  0.50027939  0.83396729  0.50040302  1
  Ni  Ni43  1  0.33425401  0.66742628  0.66703161  1
  Ni  Ni44  1  0.50027939  0.83396729  0.83366021  1
  Ni  Ni45  1  0.83361116  0.16694244  0.50015403  1
  Fe  Fe46  1  0.66718391  0.00036495  0.66703161  1
  Ni  Ni47  1  0.83361116  0.16694244  0.83390920  1
  Ni  Ni48  1  0.83369322  0.50036495  0.50032172  1
  Ni  Ni49  1  0.66701559  0.33464823  0.66703161  1
  Ni  Ni50  1  0.83369322  0.50036495  0.83374151  1
  Ni  Ni51  1  0.83361116  0.83378746  0.50015403  1
  Ni  Ni52  1  0.66701559  0.66608166  0.66703161  1
  Ni  Ni53  1  0.83361116  0.83378746  0.83390920  1
" 