877,Ni94Fe2Cr2_4,-239.026631577894, 177.863360869014,Ni94Fe2Cr2,"# generated using pymatgen
 data_Cr2FeNi51
_symmetry_space_group_name_H-M   'P 1'
_cell_length_a   7.46143205
_cell_length_b   7.46143205
_cell_length_c   10.55205840
_cell_angle_alpha   90.00000000
_cell_angle_beta   90.00000000
_cell_angle_gamma   90.00000000
_symmetry_Int_Tables_number   1
_chemical_formula_structural   Cr2FeNi51
_chemical_formula_sum   'Cr2 Fe1 Ni51'
_cell_volume   587.46441279
_cell_formula_units_Z   1
loop_
 _symmetry_equiv_pos_site_id
 _symmetry_equiv_pos_as_xyz
  1  'x, y, z'
loop_
 _atom_site_type_symbol
 _atom_site_label
 _atom_site_symmetry_multiplicity
 _atom_site_fract_x
 _atom_site_fract_y
 _atom_site_fract_z
 _atom_site_occupancy
  Ni  Ni0  1  0.00083424  0.00090853  0.99998511  1
  Ni  Ni1  1  0.16811223  0.16781514  0.16622186  1
  Cr  Cr2  1  0.00043892  0.00055687  0.33348339  1
  Ni  Ni3  1  0.00062610  0.33269031  0.00145667  1
  Ni  Ni4  1  0.16686293  0.50046584  0.16705495  1
  Ni  Ni5  1  1.00032710  0.33526156  0.33375047  1
  Ni  Ni6  1  0.00191536  0.66754965  0.00147487  1
  Ni  Ni7  1  0.16818462  0.83288400  0.16626146  1
  Ni  Ni8  1  0.00063823  0.66521322  0.33341426  1
  Ni  Ni9  1  0.33368964  0.99956507  0.00064278  1
  Ni  Ni10  1  0.50035249  0.16670828  0.16729569  1
  Ni  Ni11  1  0.33527547  1.00031296  0.33374919  1
  Fe  Fe12  1  0.33391262  0.33373059  1.00033540  1
  Ni  Ni13  1  0.50048228  0.50046708  0.16682502  1
  Ni  Ni14  1  0.33388337  0.33402768  0.33306685  1
  Ni  Ni15  1  0.33385588  0.66755786  1.00018478  1
  Ni  Ni16  1  0.50024176  0.83392968  0.16729736  1
  Ni  Ni17  1  0.33388298  0.66678908  0.33375123  1
  Ni  Ni18  1  0.66659642  0.00091138  0.00041021  1
  Ni  Ni19  1  0.83272542  0.16805947  0.16602620  1
  Ni  Ni20  1  0.66534213  0.00062200  0.33341439  1
  Ni  Ni21  1  0.66667380  0.33287956  0.00120757  1
  Ni  Ni22  1  0.83377732  0.50038381  0.16750768  1
  Ni  Ni23  1  0.66691730  0.33386849  0.33374997  1
  Ni  Ni24  1  0.66535361  0.66736980  0.00123534  1
  Ni  Ni25  1  0.83268866  0.83265607  0.16569081  1
  Ni  Ni26  1  0.66660685  0.66663668  0.33341753  1
  Ni  Ni27  1  0.16834321  0.16803774  0.50124614  1
  Ni  Ni28  1  0.00054002  0.00061651  0.66773701  1
  Ni  Ni29  1  0.16716609  0.16681118  0.83368982  1
  Ni  Ni30  1  0.16707126  0.50024882  0.50041373  1
  Ni  Ni31  1  0.00135240  0.33264302  0.66588483  1
  Ni  Ni32  1  0.16844206  0.50041908  0.83371791  1
  Ni  Ni33  1  0.16811208  0.83283380  0.50125105  1
  Ni  Ni34  1  0.00167049  0.66788372  0.66619350  1
  Ni  Ni35  1  0.16721688  0.83386726  0.83363931  1
  Ni  Ni36  1  0.50010466  0.16694671  0.50018647  1
  Ni  Ni37  1  0.33369114  1.00031438  0.66673976  1
  Ni  Ni38  1  0.50027579  0.16664413  0.83368141  1
  Ni  Ni39  1  0.50027262  0.50025010  0.50064545  1
  Ni  Ni40  1  0.33385025  0.33393069  0.66786867  1
  Ni  Ni41  1  0.49884239  0.50042663  0.83371033  1
  Ni  Ni42  1  0.50034350  0.83393358  0.50018465  1
  Ni  Ni43  1  0.33385246  0.66689186  0.66718556  1
  Ni  Ni44  1  0.50021682  0.83402665  0.83363924  1
  Ni  Ni45  1  0.83268045  0.16799407  0.50150073  1
  Ni  Ni46  1  0.66689162  0.00061507  0.66730882  1
  Ni  Ni47  1  0.83369259  0.16551586  0.83364963  1
  Ni  Ni48  1  0.83378633  0.50048908  0.49998452  1
  Ni  Ni49  1  0.66591667  0.33282728  0.66612721  1
  Cr  Cr50  1  0.83382619  0.50066519  0.83333070  1
  Ni  Ni51  1  0.83267238  0.83263230  0.50151378  1
  Ni  Ni52  1  0.66559834  0.66770752  0.66642971  1
  Ni  Ni53  1  0.83369411  0.83532760  0.83394951  1
" 