1748,Ni94Fe6_9,-226.403670685097, 141.671527810517,Ni94Fe6,"# generated using pymatgen
 data_Fe25Ni2
_symmetry_space_group_name_H-M   'P 1'
_cell_length_a   7.41036353
_cell_length_b   7.41036353
_cell_length_c   10.47983661
_cell_angle_alpha   90.00000000
_cell_angle_beta   90.00000000
_cell_angle_gamma   90.00000000
_symmetry_Int_Tables_number   1
_chemical_formula_structural   Fe25Ni2
_chemical_formula_sum   'Fe50 Ni4'
_cell_volume   575.48437871
_cell_formula_units_Z   2
loop_
 _symmetry_equiv_pos_site_id
 _symmetry_equiv_pos_as_xyz
  1  'x, y, z'
loop_
 _atom_site_type_symbol
 _atom_site_label
 _atom_site_symmetry_multiplicity
 _atom_site_fract_x
 _atom_site_fract_y
 _atom_site_fract_z
 _atom_site_occupancy
  Fe  Fe0  1  1.00382155  0.00383035  1.00318216  1
  Fe  Fe1  1  0.17057848  0.17067767  0.17058579  1
  Fe  Fe2  1  0.00422568  1.00351311  0.33737503  1
  Fe  Fe3  1  1.00340801  0.33684822  1.00360178  1
  Fe  Fe4  1  0.17057848  0.50363830  0.17039684  1
  Fe  Fe5  1  1.00340801  0.33746774  0.33738085  1
  Fe  Fe6  1  0.00422568  0.67080285  1.00360760  1
  Fe  Fe7  1  0.17048500  0.83715798  0.17049132  1
  Fe  Fe8  1  1.00382155  0.67048561  0.33780047  1
  Fe  Fe9  1  0.33684520  1.00342234  1.00361333  1
  Fe  Fe10  1  0.50372981  0.17048761  0.17058623  1
  Fe  Fe11  1  0.33685197  1.00351611  0.33746997  1
  Fe  Fe12  1  0.33725065  0.33724581  0.00401002  1
  Fe  Fe13  1  0.50372981  0.50382836  0.17039640  1
  Fe  Fe14  1  0.33725065  0.33707015  0.33697261  1
  Fe  Fe15  1  0.33685197  0.67079985  1.00351266  1
  Fe  Fe16  1  0.50401495  0.83715798  0.17049132  1
  Fe  Fe17  1  0.33684520  0.67089363  0.33736930  1
  Fe  Fe18  1  0.67080725  0.00423558  1.00360061  1
  Fe  Fe19  1  0.83716486  0.17039353  0.16973103  1
  Fe  Fe20  1  0.67040835  0.00392410  0.33697266  1
  Fe  Fe21  1  0.67080324  0.33685982  1.00350669  1
  Fe  Fe22  1  0.83716486  0.50392243  0.17125160  1
  Fe  Fe23  1  0.67080324  0.33745614  0.33747594  1
  Fe  Fe24  1  0.67040835  0.67039186  0.00400997  1
  Fe  Fe25  1  0.83697560  0.83715798  0.17049132  1
  Fe  Fe26  1  0.67080725  0.67008039  0.33738202  1
  Fe  Fe27  1  0.16991934  0.17062258  0.50364074  1
  Fe  Fe28  1  0.00425413  1.00348462  0.67091900  1
  Fe  Fe29  1  0.16983807  0.16994572  0.83724749  1
  Fe  Fe30  1  0.16983807  0.50437025  0.50373514  1
  Fe  Fe31  1  1.00300457  0.33715798  0.67049132  1
  Fe  Fe32  1  0.16991934  0.50369339  0.83734189  1
  Ni  Ni33  1  0.17145457  0.83745118  0.50286620  1
  Fe  Fe34  1  0.00425413  0.67083134  0.67006363  1
  Ni  Ni35  1  0.17145457  0.83686478  0.83811643  1
  Fe  Fe36  1  0.50373006  0.17048732  0.50373396  1
  Fe  Fe37  1  0.33650845  1.00308538  0.67039118  1
  Fe  Fe38  1  0.50377154  0.16982894  0.83715388  1
  Fe  Fe39  1  0.50377154  0.50448702  0.50382875  1
  Fe  Fe40  1  0.33733738  0.33715798  0.67049132  1
  Fe  Fe41  1  0.50373006  0.50382865  0.83724867  1
  Fe  Fe42  1  0.50397052  0.83649920  0.50373496  1
  Fe  Fe43  1  0.33650845  0.67123059  0.67059145  1
  Fe  Fe44  1  0.50397052  0.83781677  0.83724767  1
  Fe  Fe45  1  0.83782410  0.17043204  0.50449507  1
  Fe  Fe46  1  0.67072262  0.00432472  0.67090297  1
  Ni  Ni47  1  0.83619535  0.17156053  0.83739027  1
  Ni  Ni48  1  0.83619535  0.50275544  0.50359236  1
  Fe  Fe49  1  0.67110945  0.33715798  0.67049132  1
  Fe  Fe50  1  0.83782410  0.50388392  0.83648756  1
  Fe  Fe51  1  0.83771825  0.83641603  0.50364111  1
  Fe  Fe52  1  0.67072262  0.66999125  0.67007966  1
  Fe  Fe53  1  0.83771825  0.83789993  0.83734152  1
" 