6978,Ni94Fe3Cr1_4,-239.002341229395, 177.322864642791,Ni94Fe3Cr1,"# generated using pymatgen
 data_Cr2FeNi51
_symmetry_space_group_name_H-M   'P 1'
_cell_length_a   7.46169946
_cell_length_b   7.46169946
_cell_length_c   10.55243657
_cell_angle_alpha   90.00000000
_cell_angle_beta   90.00000000
_cell_angle_gamma   90.00000000
_symmetry_Int_Tables_number   1
_chemical_formula_structural   Cr2FeNi51
_chemical_formula_sum   'Cr2 Fe1 Ni51'
_cell_volume   587.52757576
_cell_formula_units_Z   1
loop_
 _symmetry_equiv_pos_site_id
 _symmetry_equiv_pos_as_xyz
  1  'x, y, z'
loop_
 _atom_site_type_symbol
 _atom_site_label
 _atom_site_symmetry_multiplicity
 _atom_site_fract_x
 _atom_site_fract_y
 _atom_site_fract_z
 _atom_site_occupancy
  Ni  Ni0  1  0.00152252  0.99914187  0.99930700  1
  Ni  Ni1  1  0.16850169  0.16725413  0.16701018  1
  Ni  Ni2  1  0.00132228  0.99924097  0.33457383  1
  Ni  Ni3  1  0.00128427  0.33473901  0.99950745  1
  Ni  Ni4  1  0.16703952  0.50030852  0.16700937  1
  Ni  Ni5  1  0.00142675  0.33475194  0.33456475  1
  Ni  Ni6  1  0.00041790  0.66722694  1.00035582  1
  Ni  Ni7  1  0.16720772  0.83351266  0.16748474  1
  Ni  Ni8  1  1.00016480  0.66704685  0.33344979  1
  Ni  Ni9  1  0.33250396  0.00131863  0.00141757  1
  Ni  Ni10  1  0.49857262  0.16677044  0.16712240  1
  Ni  Ni11  1  0.33376112  0.00054042  0.33347843  1
  Ni  Ni12  1  0.33387656  0.33362771  1.00035739  1
  Ni  Ni13  1  0.49993024  0.50079775  0.16711549  1
  Ni  Ni14  1  0.33384051  0.33362860  0.33344922  1
  Ni  Ni15  1  0.33250726  0.66610836  0.00121154  1
  Ni  Ni16  1  0.50024527  0.83350955  0.16720596  1
  Ni  Ni17  1  0.33377189  0.66691385  0.33371040  1
  Ni  Ni18  1  0.66705219  0.00050884  0.00038619  1
  Cr  Cr19  1  0.83441451  0.16737727  0.16765297  1
  Ni  Ni20  1  0.66604631  0.99936581  0.33450179  1
  Ni  Ni21  1  0.66592254  0.33475005  0.99928826  1
  Ni  Ni22  1  0.83410332  0.50211670  0.16735267  1
  Ni  Ni23  1  0.66580317  0.33475977  0.33487649  1
  Ni  Ni24  1  0.66814073  0.66582979  0.00144070  1
  Ni  Ni25  1  0.83362237  0.83218797  0.16678364  1
  Ni  Ni26  1  0.66710877  0.66699368  0.33345254  1
  Ni  Ni27  1  0.16685843  0.16794944  0.50012847  1
  Ni  Ni28  1  1.00029923  1.00034508  0.66721387  1
  Ni  Ni29  1  0.16683596  0.16727129  0.83393606  1
  Ni  Ni30  1  0.16703376  0.49955467  0.50036615  1
  Ni  Ni31  1  0.00036236  0.33370867  0.66703432  1
  Ni  Ni32  1  0.16700618  0.50027235  0.83370995  1
  Fe  Fe33  1  0.16705759  0.83347859  0.50039422  1
  Ni  Ni34  1  1.00012383  0.66701606  0.66722519  1
  Ni  Ni35  1  0.16558109  0.83353241  0.83301107  1
  Ni  Ni36  1  0.49982776  0.16648405  0.50035911  1
  Ni  Ni37  1  0.33270125  0.00158430  0.66611769  1
  Ni  Ni38  1  0.50011118  0.16830233  0.83358990  1
  Ni  Ni39  1  0.49966881  0.50106021  0.50058644  1
  Ni  Ni40  1  0.33377128  0.33355102  0.66726550  1
  Ni  Ni41  1  0.49995565  0.49910397  0.83337257  1
  Ni  Ni42  1  0.50095549  0.83352934  0.50015834  1
  Ni  Ni43  1  0.33267928  0.66591374  0.66609574  1
  Cr  Cr44  1  0.50021765  0.83315363  0.83364318  1
  Ni  Ni45  1  0.83438730  0.16664429  0.50055605  1
  Ni  Ni46  1  0.66800881  0.00138746  0.66620964  1
  Ni  Ni47  1  0.83411889  0.16696100  0.83315993  1
  Ni  Ni48  1  0.83438821  0.50073321  0.50012884  1
  Ni  Ni49  1  0.66693920  0.33371662  0.66694506  1
  Ni  Ni50  1  0.83411383  0.50042307  0.83359403  1
  Ni  Ni51  1  0.83284514  0.83370038  0.50035927  1
  Ni  Ni52  1  0.66820645  0.66595229  0.66617809  1
  Ni  Ni53  1  0.83518675  0.83369458  0.83394694  1
" 