1714,Ni94Fe6_8,-226.148767585698, 141.909140619916,Ni94Fe6,"# generated using pymatgen
 data_Fe25Ni2
_symmetry_space_group_name_H-M   'P 1'
_cell_length_a   7.40820523
_cell_length_b   7.40820523
_cell_length_c   10.47678431
_cell_angle_alpha   90.00000000
_cell_angle_beta   90.00000000
_cell_angle_gamma   90.00000000
_symmetry_Int_Tables_number   1
_chemical_formula_structural   Fe25Ni2
_chemical_formula_sum   'Fe50 Ni4'
_cell_volume   574.98168815
_cell_formula_units_Z   2
loop_
 _symmetry_equiv_pos_site_id
 _symmetry_equiv_pos_as_xyz
  1  'x, y, z'
loop_
 _atom_site_type_symbol
 _atom_site_label
 _atom_site_symmetry_multiplicity
 _atom_site_fract_x
 _atom_site_fract_y
 _atom_site_fract_z
 _atom_site_occupancy
  Fe  Fe0  1  0.00513444  1.00369480  1.00384281  1
  Fe  Fe1  1  0.17053429  0.17063856  0.17002155  1
  Fe  Fe2  1  0.00407949  0.00407710  0.33709425  1
  Fe  Fe3  1  0.00502880  0.33757978  1.00373698  1
  Fe  Fe4  1  0.17097459  0.50441684  0.17040461  1
  Fe  Fe5  1  0.00397342  0.33719789  0.33719992  1
  Fe  Fe6  1  0.00453987  0.67063919  1.00335372  1
  Fe  Fe7  1  0.17097535  0.83685806  0.17040385  1
  Fe  Fe8  1  1.00386497  0.67063915  0.33813223  1
  Fe  Fe9  1  0.33686017  1.00363041  1.00373691  1
  Fe  Fe10  1  0.50418260  0.17063600  0.17084798  1
  Fe  Fe11  1  0.33719667  0.00407717  0.33730565  1
  Fe  Fe12  1  0.33696585  0.33764128  1.00363094  1
  Fe  Fe13  1  0.50362984  0.50430961  0.17029751  1
  Fe  Fe14  1  0.33730275  0.33719782  0.33741144  1
  Ni  Ni15  1  0.33668816  0.67025843  0.00411490  1
  Fe  Fe16  1  0.50363166  0.83696787  0.17029671  1
  Fe  Fe17  1  0.33741121  0.67063924  0.33647925  1
  Fe  Fe18  1  0.66991944  1.00314618  1.00335352  1
  Fe  Fe19  1  0.83719735  0.17063610  0.17073890  1
  Fe  Fe20  1  0.67063805  1.00396872  0.33802661  1
  Fe  Fe21  1  0.66991957  0.33823478  0.00418039  1
  Fe  Fe22  1  0.83730839  0.50386797  0.17074229  1
  Fe  Fe23  1  0.67063813  0.33741258  0.33719987  1
  Fe  Fe24  1  0.66985411  0.67053339  0.00417691  1
  Fe  Fe25  1  0.83730581  0.83741023  0.17074225  1
  Fe  Fe26  1  0.67063821  0.67053324  0.33720005  1
  Fe  Fe27  1  0.17074181  0.17074230  0.50448294  1
  Fe  Fe28  1  1.00362978  1.00362682  0.67097698  1
  Ni  Ni29  1  0.17063801  0.17051953  0.83718670  1
  Fe  Fe30  1  0.17030240  0.50441602  0.50420801  1
  Fe  Fe31  1  1.00359063  0.33692093  0.67097700  1
  Fe  Fe32  1  0.17064049  0.50397237  0.83730314  1
  Fe  Fe33  1  0.17030005  0.83675355  0.50410135  1
  Ni  Ni34  1  0.00489525  0.66995124  0.67087450  1
  Fe  Fe35  1  0.17063865  0.83719549  0.83741046  1
  Fe  Fe36  1  0.50441407  0.17030089  0.50420755  1
  Fe  Fe37  1  0.33692243  1.00369399  0.67087107  1
  Fe  Fe38  1  0.50373976  0.17029989  0.83685779  1
  Fe  Fe39  1  0.50386417  0.50386825  0.50376215  1
  Fe  Fe40  1  0.33696680  0.33686189  0.67087112  1
  Fe  Fe41  1  0.50280801  0.50348786  0.83785463  1
  Fe  Fe42  1  0.50430900  0.83774877  0.50420769  1
  Fe  Fe43  1  0.33745754  0.67135824  0.67125494  1
  Fe  Fe44  1  0.50325284  0.83812925  0.83740919  1
  Fe  Fe45  1  0.83675682  0.17029921  0.50410012  1
  Ni  Ni46  1  0.67033085  0.00515620  0.67037647  1
  Fe  Fe47  1  0.83753471  0.17029805  0.83707426  1
  Fe  Fe48  1  0.83775085  0.50431058  0.50420769  1
  Fe  Fe49  1  0.67135696  0.33745852  0.67053394  1
  Fe  Fe50  1  0.83846755  0.50348725  0.83696564  1
  Fe  Fe51  1  0.83730671  0.83730565  0.50465707  1
  Fe  Fe52  1  0.67142521  0.67132231  0.67053736  1
  Fe  Fe53  1  0.83802280  0.83812993  0.83651561  1
" 