4368,Ni94Fe6_7,-226.311734186361, 141.556012960884,Ni94Fe6,"# generated using pymatgen
 data_Fe25Ni2
_symmetry_space_group_name_H-M   'P 1'
_cell_length_a   7.40990505
_cell_length_b   7.40990505
_cell_length_c   10.47918822
_cell_angle_alpha   90.00000000
_cell_angle_beta   90.00000000
_cell_angle_gamma   90.00000000
_symmetry_Int_Tables_number   1
_chemical_formula_structural   Fe25Ni2
_chemical_formula_sum   'Fe50 Ni4'
_cell_volume   575.37756850
_cell_formula_units_Z   2
loop_
 _symmetry_equiv_pos_site_id
 _symmetry_equiv_pos_as_xyz
  1  'x, y, z'
loop_
 _atom_site_type_symbol
 _atom_site_label
 _atom_site_symmetry_multiplicity
 _atom_site_fract_x
 _atom_site_fract_y
 _atom_site_fract_z
 _atom_site_occupancy
  Fe  Fe0  1  1.00357253  0.00413559  1.00357276  1
  Fe  Fe1  1  0.17060798  0.17052014  0.17061046  1
  Fe  Fe2  1  1.00357161  1.00365888  0.33738688  1
  Fe  Fe3  1  1.00357568  0.33690837  1.00357322  1
  Fe  Fe4  1  0.17052338  0.50385904  0.17052340  1
  Fe  Fe5  1  0.00394053  0.33718825  0.33710781  1
  Fe  Fe6  1  1.00385333  0.67052399  0.00402826  1
  Fe  Fe7  1  0.17052332  0.83718828  0.17034950  1
  Fe  Fe8  1  1.00348709  0.67072036  0.33729989  1
  Fe  Fe9  1  0.33719130  1.00385484  0.00402826  1
  Fe  Fe10  1  0.50377148  0.17060740  0.17052338  1
  Fe  Fe11  1  0.33747197  1.00374378  0.33729950  1
  Fe  Fe12  1  0.33718861  0.33718873  0.00402824  1
  Fe  Fe13  1  0.50385606  0.50377177  0.17043633  1
  Fe  Fe14  1  0.33710351  0.33710361  0.33702079  1
  Fe  Fe15  1  0.33719121  0.67052394  1.00325374  1
  Fe  Fe16  1  0.50376875  0.83718820  0.17103341  1
  Fe  Fe17  1  0.33747076  0.67071877  0.33798174  1
  Fe  Fe18  1  0.67080451  0.00413370  1.00357197  1
  Fe  Fe19  1  0.83718809  0.17060735  0.16983976  1
  Fe  Fe20  1  0.67052326  1.00329271  0.33775346  1
  Fe  Fe21  1  0.67080404  0.33690759  1.00357243  1
  Fe  Fe22  1  0.83718801  0.50385643  0.17052345  1
  Fe  Fe23  1  0.67052342  0.33718814  0.33701729  1
  Fe  Fe24  1  0.67052293  0.67052667  0.00402827  1
  Fe  Fe25  1  0.83727530  0.83710375  0.17111993  1
  Fe  Fe26  1  0.67060838  0.67108599  0.33766588  1
  Fe  Fe27  1  0.17052302  0.16933088  0.50368335  1
  Fe  Fe28  1  0.00388548  1.00334727  0.67061044  1
  Fe  Fe29  1  0.16987536  0.17052022  0.83727369  1
  Fe  Fe30  1  0.17080295  0.50532787  0.50413834  1
  Fe  Fe31  1  0.00425397  0.33750162  0.67088780  1
  Fe  Fe32  1  0.17021004  0.50354568  0.83690434  1
  Fe  Fe33  1  0.17080388  0.83690814  0.50413869  1
  Fe  Fe34  1  0.00422148  0.67071921  0.67024050  1
  Fe  Fe35  1  0.17021001  0.83750182  0.83707829  1
  Fe  Fe36  1  0.50445034  0.16936374  0.50368344  1
  Fe  Fe37  1  0.33747344  1.00300967  0.67023823  1
  Fe  Fe38  1  0.50450722  0.17060734  0.83736065  1
  Fe  Fe39  1  0.50416954  0.50529307  0.50413888  1
  Fe  Fe40  1  0.33710365  0.33783716  0.67051835  1
  Fe  Fe41  1  0.50416924  0.50345878  0.83699106  1
  Ni  Ni42  1  0.50427987  0.83676097  0.50365881  1
  Ni  Ni43  1  0.33730750  0.67073736  0.67030519  1
  Fe  Fe44  1  0.50408273  0.83750221  0.83639541  1
  Fe  Fe45  1  0.83659386  0.16936671  0.50445779  1
  Fe  Fe46  1  0.67020922  1.00298106  0.67024339  1
  Ni  Ni47  1  0.83750158  0.17073796  0.83740859  1
  Fe  Fe48  1  0.83659417  0.50501169  0.50368337  1
  Fe  Fe49  1  0.67021073  0.33750070  0.67097894  1
  Fe  Fe50  1  0.83718806  0.50312328  0.83736069  1
  Ni  Ni51  1  0.83633283  0.83718883  0.50404923  1
  Fe  Fe52  1  0.66987200  0.67108618  0.66987305  1
  Fe  Fe53  1  0.83727521  0.83783876  0.83676387  1
" 