5538,Ni94Fe3Cr1_11,-239.027125494338, 177.597218307596,Ni94Fe3Cr1,"# generated using pymatgen
 data_Cr2FeNi51
_symmetry_space_group_name_H-M   'P 1'
_cell_length_a   7.46130067
_cell_length_b   7.46130067
_cell_length_c   10.55187259
_cell_angle_alpha   90.00000000
_cell_angle_beta   90.00000000
_cell_angle_gamma   90.00000000
_symmetry_Int_Tables_number   1
_chemical_formula_structural   Cr2FeNi51
_chemical_formula_sum   'Cr2 Fe1 Ni51'
_cell_volume   587.43337950
_cell_formula_units_Z   1
loop_
 _symmetry_equiv_pos_site_id
 _symmetry_equiv_pos_as_xyz
  1  'x, y, z'
loop_
 _atom_site_type_symbol
 _atom_site_label
 _atom_site_symmetry_multiplicity
 _atom_site_fract_x
 _atom_site_fract_y
 _atom_site_fract_z
 _atom_site_occupancy
  Ni  Ni0  1  0.00178347  0.00178347  0.00070288  1
  Ni  Ni1  1  0.16699850  0.16699850  0.16702790  1
  Ni  Ni2  1  0.99986580  0.99986580  0.33331146  1
  Ni  Ni3  1  1.00029745  0.33261961  0.00069936  1
  Ni  Ni4  1  0.16807070  0.49931595  0.16792545  1
  Ni  Ni5  1  1.00002287  0.33443709  0.33355830  1
  Cr  Cr6  1  0.00076533  0.66710722  1.00000613  1
  Ni  Ni7  1  0.16811261  0.83484608  0.16772454  1
  Ni  Ni8  1  0.00133552  0.66686059  0.33399755  1
  Ni  Ni9  1  0.33261961  1.00029745  0.00069936  1
  Ni  Ni10  1  0.49931595  0.16807070  0.16792545  1
  Ni  Ni11  1  0.33443709  1.00002287  0.33355830  1
  Ni  Ni12  1  0.33397217  0.33397217  0.00069899  1
  Ni  Ni13  1  0.50037075  0.50037075  0.16674466  1
  Ni  Ni14  1  0.33428277  0.33428277  0.33378959  1
  Ni  Ni15  1  0.33503039  0.66688113  1.00031536  1
  Ni  Ni16  1  0.49930224  0.83264228  0.16783326  1
  Ni  Ni17  1  0.33265957  0.66686137  0.33354716  1
  Cr  Cr18  1  0.66710722  0.00076533  1.00000613  1
  Ni  Ni19  1  0.83484608  0.16811261  0.16772454  1
  Ni  Ni20  1  0.66686059  0.00133552  0.33399755  1
  Ni  Ni21  1  0.66688113  0.33503039  1.00031536  1
  Ni  Ni22  1  0.83264228  0.49930224  0.16783326  1
  Ni  Ni23  1  0.66686137  0.33265957  0.33354716  1
  Ni  Ni24  1  0.66546111  0.66546111  0.00108730  1
  Ni  Ni25  1  0.83368258  0.83368258  0.16898284  1
  Fe  Fe26  1  0.66682217  0.66682217  0.33396221  1
  Ni  Ni27  1  0.16687157  0.16687157  0.50008980  1
  Ni  Ni28  1  1.00016004  1.00016004  0.66715731  1
  Ni  Ni29  1  0.16699371  0.16699371  0.83404656  1
  Ni  Ni30  1  0.16707790  0.50036084  0.50046152  1
  Ni  Ni31  1  1.00033312  0.33413957  0.66690323  1
  Ni  Ni32  1  0.16815692  0.49913548  0.83270265  1
  Ni  Ni33  1  0.16707714  0.83392380  0.50046335  1
  Ni  Ni34  1  0.00065826  0.66685319  0.66682133  1
  Ni  Ni35  1  0.16819853  0.83503479  0.83291005  1
  Ni  Ni36  1  0.50036084  0.16707790  0.50046152  1
  Ni  Ni37  1  0.33413957  1.00033312  0.66690323  1
  Ni  Ni38  1  0.49913548  0.16815692  0.83270265  1
  Ni  Ni39  1  0.50039415  0.50039415  0.50049416  1
  Ni  Ni40  1  0.33396914  0.33396914  0.66666455  1
  Ni  Ni41  1  0.50058917  0.50058917  0.83404524  1
  Ni  Ni42  1  0.50022687  0.83366055  0.50046330  1
  Ni  Ni43  1  0.33348364  0.66685412  0.66725219  1
  Ni  Ni44  1  0.49941200  0.83241499  0.83294158  1
  Ni  Ni45  1  0.83392380  0.16707714  0.50046335  1
  Ni  Ni46  1  0.66685319  0.00065826  0.66682133  1
  Ni  Ni47  1  0.83503479  0.16819853  0.83291005  1
  Ni  Ni48  1  0.83366055  0.50022687  0.50046330  1
  Ni  Ni49  1  0.66685412  0.33348364  0.66725219  1
  Ni  Ni50  1  0.83241499  0.49941200  0.83294158  1
  Ni  Ni51  1  0.83382840  0.83382840  0.50043236  1
  Ni  Ni52  1  0.66701841  0.66701841  0.66674341  1
  Ni  Ni53  1  0.83356266  0.83356266  0.83176247  1
" 