2760,Ni94Fe6_3,-226.367628248145, 139.983650875039,Ni94Fe6,"# generated using pymatgen
 data_Fe25Ni2
_symmetry_space_group_name_H-M   'P 1'
_cell_length_a   7.41102521
_cell_length_b   7.41102521
_cell_length_c   10.48077236
_cell_angle_alpha   90.00000000
_cell_angle_beta   90.00000000
_cell_angle_gamma   90.00000000
_symmetry_Int_Tables_number   1
_chemical_formula_structural   Fe25Ni2
_chemical_formula_sum   'Fe50 Ni4'
_cell_volume   575.63854765
_cell_formula_units_Z   2
loop_
 _symmetry_equiv_pos_site_id
 _symmetry_equiv_pos_as_xyz
  1  'x, y, z'
loop_
 _atom_site_type_symbol
 _atom_site_label
 _atom_site_symmetry_multiplicity
 _atom_site_fract_x
 _atom_site_fract_y
 _atom_site_fract_z
 _atom_site_occupancy
  Fe  Fe0  1  0.00384398  1.00373937  0.00476286  1
  Fe  Fe1  1  0.16916174  0.17054995  0.17035299  1
  Fe  Fe2  1  1.00311404  0.00378636  0.33606699  1
  Fe  Fe3  1  1.00371774  0.33708330  0.00487236  1
  Ni  Ni4  1  0.17129748  0.50445971  0.17089403  1
  Fe  Fe5  1  1.00295709  0.33632883  0.33603462  1
  Fe  Fe6  1  0.00450413  0.67056048  0.00440846  1
  Ni  Ni7  1  0.17131463  0.83671720  0.17062619  1
  Fe  Fe8  1  1.00364628  0.67129843  0.33654588  1
  Fe  Fe9  1  0.33661767  1.00326639  0.00394057  1
  Fe  Fe10  1  0.50239547  0.17003402  0.17084603  1
  Fe  Fe11  1  0.33732190  1.00331313  0.33689696  1
  Fe  Fe12  1  0.33675842  0.33753920  0.00406668  1
  Fe  Fe13  1  0.50349490  0.50371449  0.17035070  1
  Fe  Fe14  1  0.33755995  0.33674099  0.33683185  1
  Fe  Fe15  1  0.33681560  0.67056241  0.00442896  1
  Fe  Fe16  1  0.50387159  0.83751833  0.17079600  1
  Fe  Fe17  1  0.33767929  0.67130941  0.33652066  1
  Fe  Fe18  1  0.67065431  0.00403458  0.00517765  1
  Ni  Ni19  1  0.83535697  0.17042204  0.17044137  1
  Ni  Ni20  1  0.67027002  1.00339364  0.33668531  1
  Fe  Fe21  1  0.67068944  0.33688116  0.00408292  1
  Fe  Fe22  1  0.83897254  0.50397445  0.17035336  1
  Fe  Fe23  1  0.67067906  0.33616435  0.33670723  1
  Fe  Fe24  1  0.67040285  0.67038699  1.00338116  1
  Fe  Fe25  1  0.83853157  0.83732946  0.17082863  1
  Fe  Fe26  1  0.67040556  0.67098439  0.33740888  1
  Fe  Fe27  1  0.17049794  0.17051384  0.50415832  1
  Fe  Fe28  1  1.00377254  1.00377607  0.67054617  1
  Fe  Fe29  1  0.17049443  0.17050890  0.83683368  1
  Fe  Fe30  1  0.17038052  0.50364981  0.50249312  1
  Fe  Fe31  1  1.00364755  0.33704459  0.67040821  1
  Fe  Fe32  1  0.17037836  0.50365149  0.83810249  1
  Fe  Fe33  1  0.17038238  0.83717573  0.50288108  1
  Fe  Fe34  1  0.00406590  0.67051937  0.67040501  1
  Fe  Fe35  1  0.17037773  0.83718033  0.83809884  1
  Fe  Fe36  1  0.50401514  0.17000205  0.50338715  1
  Fe  Fe37  1  0.33697585  1.00356758  0.67054400  1
  Fe  Fe38  1  0.50372178  0.17030080  0.83709026  1
  Fe  Fe39  1  0.50377329  0.50377833  0.50389921  1
  Fe  Fe40  1  0.33710122  0.33725243  0.67040563  1
  Fe  Fe41  1  0.50377543  0.50377533  0.83708935  1
  Fe  Fe42  1  0.50423789  0.83751679  0.50343046  1
  Fe  Fe43  1  0.33688999  0.67051875  0.67040537  1
  Fe  Fe44  1  0.50398293  0.83726184  0.83708791  1
  Fe  Fe45  1  0.83683461  0.17002949  0.50229583  1
  Fe  Fe46  1  0.67059260  0.00398835  0.66938571  1
  Fe  Fe47  1  0.83710174  0.17029952  0.83826201  1
  Fe  Fe48  1  0.83719641  0.50390335  0.50403310  1
  Fe  Fe49  1  0.67059132  0.33695713  0.67054604  1
  Fe  Fe50  1  0.83719500  0.50390149  0.83695644  1
  Fe  Fe51  1  0.83671557  0.83740547  0.50354763  1
  Fe  Fe52  1  0.67038277  0.67039402  0.67054429  1
  Fe  Fe53  1  0.83698687  0.83713606  0.83695538  1
" 