4945,Ni94Fe6_0,-226.332197276486, 141.581880345622,Ni94Fe6,"# generated using pymatgen
 data_Fe25Ni2
_symmetry_space_group_name_H-M   'P 1'
_cell_length_a   7.41037387
_cell_length_b   7.41037387
_cell_length_c   10.47985124
_cell_angle_alpha   90.00000000
_cell_angle_beta   90.00000000
_cell_angle_gamma   90.00000000
_symmetry_Int_Tables_number   1
_chemical_formula_structural   Fe25Ni2
_chemical_formula_sum   'Fe50 Ni4'
_cell_volume   575.48678804
_cell_formula_units_Z   2
loop_
 _symmetry_equiv_pos_site_id
 _symmetry_equiv_pos_as_xyz
  1  'x, y, z'
loop_
 _atom_site_type_symbol
 _atom_site_label
 _atom_site_symmetry_multiplicity
 _atom_site_fract_x
 _atom_site_fract_y
 _atom_site_fract_z
 _atom_site_occupancy
  Fe  Fe0  1  0.00391244  0.00382395  1.00311501  1
  Fe  Fe1  1  0.16987032  0.17169002  0.17048981  1
  Fe  Fe2  1  0.00382465  0.00382395  0.33795544  1
  Fe  Fe3  1  1.00352516  0.33812967  0.00420525  1
  Ni  Ni4  1  0.16950670  0.50382395  0.17039053  1
  Fe  Fe5  1  0.00382428  0.33783155  0.33648581  1
  Fe  Fe6  1  1.00352516  0.66951822  0.00420525  1
  Fe  Fe7  1  0.16987032  0.83595787  0.17048981  1
  Fe  Fe8  1  0.00382428  0.66981634  0.33648581  1
  Fe  Fe9  1  0.33733487  0.00382395  1.00382371  1
  Fe  Fe10  1  0.50382527  0.17172825  0.17048978  1
  Fe  Fe11  1  0.33733478  0.00382395  0.33715306  1
  Fe  Fe12  1  0.33686220  0.33727337  0.00411696  1
  Fe  Fe13  1  0.50373530  0.50382395  0.17057955  1
  Fe  Fe14  1  0.33686133  0.33736183  0.33695279  1
  Fe  Fe15  1  0.33686220  0.67037452  0.00411696  1
  Fe  Fe16  1  0.50382527  0.83591964  0.17048978  1
  Fe  Fe17  1  0.33686133  0.67028606  0.33695279  1
  Fe  Fe18  1  0.67022455  0.00382395  0.00391749  1
  Fe  Fe19  1  0.83777630  0.17160060  0.17057964  1
  Fe  Fe20  1  0.67031239  0.00382395  0.33715308  1
  Fe  Fe21  1  0.67108477  0.33766087  1.00373535  1
  Ni  Ni22  1  0.83803925  0.50382395  0.17108035  1
  Fe  Fe23  1  0.67078591  0.33736193  0.33695564  1
  Fe  Fe24  1  0.67108477  0.66998702  1.00373535  1
  Fe  Fe25  1  0.83777630  0.83604729  0.17057964  1
  Fe  Fe26  1  0.67078591  0.67028596  0.33695564  1
  Fe  Fe27  1  0.17019429  0.17011031  0.50420653  1
  Ni  Ni28  1  1.00372338  1.00382395  0.67059044  1
  Fe  Fe29  1  0.16957892  0.17072726  0.83677620  1
  Fe  Fe30  1  0.17075728  0.50382395  0.50311520  1
  Fe  Fe31  1  1.00353396  0.33686755  0.67078033  1
  Fe  Fe32  1  0.17008686  0.50382395  0.83777722  1
  Fe  Fe33  1  0.17019429  0.83753759  0.50420653  1
  Fe  Fe34  1  1.00353396  0.67078034  0.67078033  1
  Fe  Fe35  1  0.16957892  0.83692063  0.83677620  1
  Fe  Fe36  1  0.50382518  0.17058288  0.50373366  1
  Fe  Fe37  1  0.33657355  0.00382395  0.67049511  1
  Fe  Fe38  1  0.50444118  0.17119903  0.83724838  1
  Fe  Fe39  1  0.50373477  0.50382395  0.50391731  1
  Fe  Fe40  1  0.33653780  0.33645283  0.67040132  1
  Fe  Fe41  1  0.50440794  0.50382395  0.83697493  1
  Fe  Fe42  1  0.50382518  0.83706501  0.50373366  1
  Fe  Fe43  1  0.33653780  0.67119506  0.67040132  1
  Fe  Fe44  1  0.50444118  0.83644886  0.83724838  1
  Fe  Fe45  1  0.83745199  0.17002023  0.50411619  1
  Fe  Fe46  1  0.67098445  0.00382395  0.67040127  1
  Fe  Fe47  1  0.83745142  0.17069310  0.83677659  1
  Fe  Fe48  1  0.83697977  0.50382395  0.50382353  1
  Fe  Fe49  1  0.67140074  0.33683182  0.67078085  1
  Ni  Ni50  1  0.83735810  0.50382395  0.83656769  1
  Fe  Fe51  1  0.83745199  0.83762766  0.50411619  1
  Fe  Fe52  1  0.67140074  0.67081607  0.67078085  1
  Fe  Fe53  1  0.83745142  0.83695479  0.83677659  1
" 