8876,Ni94Fe3Cr1_18,-239.007528098208, 177.650583618975,Ni94Fe3Cr1,"# generated using pymatgen
 data_Cr2FeNi51
_symmetry_space_group_name_H-M   'P 1'
_cell_length_a   7.46188778
_cell_length_b   7.46188778
_cell_length_c   10.55270290
_cell_angle_alpha   90.00000000
_cell_angle_beta   90.00000000
_cell_angle_gamma   90.00000000
_symmetry_Int_Tables_number   1
_chemical_formula_structural   Cr2FeNi51
_chemical_formula_sum   'Cr2 Fe1 Ni51'
_cell_volume   587.57206229
_cell_formula_units_Z   1
loop_
 _symmetry_equiv_pos_site_id
 _symmetry_equiv_pos_as_xyz
  1  'x, y, z'
loop_
 _atom_site_type_symbol
 _atom_site_label
 _atom_site_symmetry_multiplicity
 _atom_site_fract_x
 _atom_site_fract_y
 _atom_site_fract_z
 _atom_site_occupancy
  Ni  Ni0  1  1.00023384  0.99874157  0.00047907  1
  Fe  Fe1  1  0.16792242  0.16630444  0.16772871  1
  Ni  Ni2  1  0.00182698  1.00031707  0.33345978  1
  Cr  Cr3  1  0.00066553  0.33442131  0.99979271  1
  Ni  Ni4  1  0.16803594  0.50226215  0.16784197  1
  Ni  Ni5  1  0.00046181  0.33393205  0.33392788  1
  Ni  Ni6  1  0.00050561  0.66841142  1.00026442  1
  Ni  Ni7  1  0.16694907  0.83301123  0.16701288  1
  Ni  Ni8  1  0.00050278  0.66680516  0.33355509  1
  Ni  Ni9  1  0.33395616  1.00007350  0.00050294  1
  Ni  Ni10  1  0.50012114  0.16804506  0.16601113  1
  Ni  Ni11  1  0.33222372  1.00015626  0.33368128  1
  Ni  Ni12  1  0.33528886  0.33397428  1.00023574  1
  Ni  Ni13  1  0.49986516  0.49974524  0.16701100  1
  Ni  Ni14  1  0.33355393  0.33392079  0.33349035  1
  Ni  Ni15  1  0.33370311  0.66698528  1.00025858  1
  Ni  Ni16  1  0.49881206  0.83318401  0.16619239  1
  Ni  Ni17  1  0.33368613  0.66696345  0.33378481  1
  Ni  Ni18  1  0.66686734  1.00015863  1.00005009  1
  Ni  Ni19  1  0.83284696  0.16698038  0.16704222  1
  Cr  Cr20  1  0.66651828  0.99951157  0.33446595  1
  Ni  Ni21  1  0.66558048  0.33368095  0.00047840  1
  Ni  Ni22  1  0.83317636  0.50081063  0.16804508  1
  Ni  Ni23  1  0.66703747  0.33515033  0.33354806  1
  Ni  Ni24  1  0.66683461  0.66719684  0.00079479  1
  Ni  Ni25  1  0.83527047  0.83320136  0.16598894  1
  Ni  Ni26  1  0.66685115  0.66547910  0.33345505  1
  Ni  Ni27  1  0.16703895  0.16692169  0.49954796  1
  Ni  Ni28  1  0.00046487  0.00048627  0.66700721  1
  Ni  Ni29  1  0.16806895  0.16580461  0.83343612  1
  Ni  Ni30  1  0.16702757  0.50043528  0.50045670  1
  Ni  Ni31  1  0.00063425  0.33370526  0.66681622  1
  Ni  Ni32  1  0.16811016  0.50146214  0.83272006  1
  Ni  Ni33  1  0.16687223  0.83365682  0.50024359  1
  Ni  Ni34  1  0.00038377  0.66683737  0.66724927  1
  Ni  Ni35  1  0.16693830  0.83375088  0.83381521  1
  Ni  Ni36  1  0.49935907  0.16823369  0.50134008  1
  Ni  Ni37  1  0.33372077  1.00032254  0.66677530  1
  Ni  Ni38  1  0.50038767  0.16710048  0.83381410  1
  Ni  Ni39  1  0.50017492  0.49996086  0.49987318  1
  Ni  Ni40  1  0.33337664  0.33370275  0.66724260  1
  Ni  Ni41  1  0.50024451  0.50002767  0.83414793  1
  Ni  Ni42  1  0.49897533  0.83280539  0.50103416  1
  Ni  Ni43  1  0.33379615  0.66701071  0.66701406  1
  Ni  Ni44  1  0.50008706  0.83390693  0.83391401  1
  Ni  Ni45  1  0.83463641  0.16803872  0.50129487  1
  Ni  Ni46  1  0.66685492  1.00006951  0.66720415  1
  Ni  Ni47  1  0.83263519  0.16598860  0.83278021  1
  Ni  Ni48  1  0.83383492  0.50012819  0.49987833  1
  Ni  Ni49  1  0.66702405  0.33378678  0.66701390  1
  Ni  Ni50  1  0.83268915  0.50118377  0.83302564  1
  Ni  Ni51  1  0.83516936  0.83283339  0.50100629  1
  Ni  Ni52  1  0.66685557  0.66718943  0.66677348  1
  Ni  Ni53  1  0.83401214  0.83389647  0.83414630  1
" 