3221,Ni94Fe2Cr2_11,-239.04023654158, 177.950408806354,Ni94Fe2Cr2,"# generated using pymatgen
 data_Cr2FeNi51
_symmetry_space_group_name_H-M   'P 1'
_cell_length_a   7.46194944
_cell_length_b   7.46194944
_cell_length_c   10.55279010
_cell_angle_alpha   90.00000000
_cell_angle_beta   90.00000000
_cell_angle_gamma   90.00000000
_symmetry_Int_Tables_number   1
_chemical_formula_structural   Cr2FeNi51
_chemical_formula_sum   'Cr2 Fe1 Ni51'
_cell_volume   587.58662835
_cell_formula_units_Z   1
loop_
 _symmetry_equiv_pos_site_id
 _symmetry_equiv_pos_as_xyz
  1  'x, y, z'
loop_
 _atom_site_type_symbol
 _atom_site_label
 _atom_site_symmetry_multiplicity
 _atom_site_fract_x
 _atom_site_fract_y
 _atom_site_fract_z
 _atom_site_occupancy
  Ni  Ni0  1  0.00036146  0.00034161  1.00032386  1
  Ni  Ni1  1  0.16620552  0.16783150  0.16618153  1
  Ni  Ni2  1  0.99932525  0.00034161  0.33367494  1
  Ni  Ni3  1  0.00094507  0.33266544  0.00135357  1
  Ni  Ni4  1  0.16701040  0.50034161  0.16701831  1
  Ni  Ni5  1  0.99980196  0.33338502  0.33367494  1
  Ni  Ni6  1  0.00094507  0.66801778  0.00135357  1
  Ni  Ni7  1  0.16620552  0.83285173  0.16618153  1
  Ni  Ni8  1  0.99980196  0.66729820  0.33367494  1
  Ni  Ni9  1  0.33365414  0.00034161  1.00019887  1
  Ni  Ni10  1  0.50105190  0.16791128  0.16610775  1
  Cr  Cr11  1  0.33305784  0.00034161  0.33367494  1
  Ni  Ni12  1  0.33387786  0.33347430  0.00054807  1
  Ni  Ni13  1  0.50032257  0.50034161  0.16698675  1
  Ni  Ni14  1  0.33409146  0.33487169  0.33367494  1
  Ni  Ni15  1  0.33387786  0.66720892  0.00054807  1
  Ni  Ni16  1  0.50105190  0.83277195  0.16610775  1
  Ni  Ni17  1  0.33409146  0.66581153  0.33367494  1
  Ni  Ni18  1  0.66701049  0.00034161  0.00076354  1
  Ni  Ni19  1  0.83377041  0.16710106  0.16691462  1
  Fe  Fe20  1  0.66862374  0.00034161  0.33367494  1
  Ni  Ni21  1  0.66620166  0.33289056  0.00112906  1
  Ni  Ni22  1  0.83369238  0.50034161  0.16711226  1
  Ni  Ni23  1  0.66713351  0.33440059  0.33367494  1
  Ni  Ni24  1  0.66620166  0.66779266  0.00112906  1
  Ni  Ni25  1  0.83377041  0.83358216  0.16691462  1
  Ni  Ni26  1  0.66713351  0.66628263  0.33367494  1
  Ni  Ni27  1  0.16620552  0.16783150  0.50116836  1
  Ni  Ni28  1  0.00036146  0.00034161  0.66702603  1
  Ni  Ni29  1  0.16713320  0.16688691  0.83367494  1
  Ni  Ni30  1  0.16701040  0.50034161  0.50033158  1
  Ni  Ni31  1  0.00094507  0.33266544  0.66599632  1
  Ni  Ni32  1  0.16862145  0.50034161  0.83367494  1
  Ni  Ni33  1  0.16620552  0.83285173  0.50116836  1
  Ni  Ni34  1  0.00094507  0.66801778  0.66599632  1
  Ni  Ni35  1  0.16713320  0.83379631  0.83367494  1
  Ni  Ni36  1  0.50105190  0.16791128  0.50124214  1
  Ni  Ni37  1  0.33365414  0.00034161  0.66715102  1
  Ni  Ni38  1  0.50022247  0.16687755  0.83367494  1
  Ni  Ni39  1  0.50032257  0.50034161  0.50036314  1
  Ni  Ni40  1  0.33387786  0.33347430  0.66680182  1
  Ni  Ni41  1  0.49872484  0.50034161  0.83367494  1
  Ni  Ni42  1  0.50105190  0.83277195  0.50124214  1
  Ni  Ni43  1  0.33387786  0.66720892  0.66680182  1
  Ni  Ni44  1  0.50022247  0.83380567  0.83367494  1
  Ni  Ni45  1  0.83377041  0.16710106  0.50043527  1
  Ni  Ni46  1  0.66701049  0.00034161  0.66658634  1
  Ni  Ni47  1  0.83366911  0.16538927  0.83367494  1
  Ni  Ni48  1  0.83369238  0.50034161  0.50023763  1
  Ni  Ni49  1  0.66620166  0.33289056  0.66622083  1
  Cr  Cr50  1  0.83367797  0.50034161  0.83367494  1
  Ni  Ni51  1  0.83377041  0.83358216  0.50043527  1
  Ni  Ni52  1  0.66620166  0.66779266  0.66622083  1
  Ni  Ni53  1  0.83366911  0.83529395  0.83367494  1
" 