3698,Ni94Fe2Cr2_5,-239.025303493911, 177.487889898264,Ni94Fe2Cr2,"# generated using pymatgen
 data_Cr2FeNi51
_symmetry_space_group_name_H-M   'P 1'
_cell_length_a   7.46160319
_cell_length_b   7.46160319
_cell_length_c   10.55230042
_cell_angle_alpha   90.00000000
_cell_angle_beta   90.00000000
_cell_angle_gamma   90.00000000
_symmetry_Int_Tables_number   1
_chemical_formula_structural   Cr2FeNi51
_chemical_formula_sum   'Cr2 Fe1 Ni51'
_cell_volume   587.50483572
_cell_formula_units_Z   1
loop_
 _symmetry_equiv_pos_site_id
 _symmetry_equiv_pos_as_xyz
  1  'x, y, z'
loop_
 _atom_site_type_symbol
 _atom_site_label
 _atom_site_symmetry_multiplicity
 _atom_site_fract_x
 _atom_site_fract_y
 _atom_site_fract_z
 _atom_site_occupancy
  Ni  Ni0  1  0.99996669  1.00004861  1.00023536  1
  Ni  Ni1  1  0.16702052  0.16704247  0.16700181  1
  Ni  Ni2  1  1.00005057  1.00006063  0.33400005  1
  Ni  Ni3  1  1.00013417  0.33392882  1.00000404  1
  Ni  Ni4  1  0.16684445  0.50006156  0.16723820  1
  Ni  Ni5  1  0.00118119  0.33288180  0.33313246  1
  Ni  Ni6  1  0.00046117  0.66711623  0.00058105  1
  Ni  Ni7  1  0.16554972  0.83398671  0.16700207  1
  Ni  Ni8  1  0.00143505  0.66811919  0.33264818  1
  Ni  Ni9  1  0.33285092  0.00121207  0.99909748  1
  Ni  Ni10  1  0.50007628  0.16851327  0.16700207  1
  Ni  Ni11  1  0.33290721  0.00115578  0.33483858  1
  Ni  Ni12  1  0.33401438  0.33409630  1.00023536  1
  Ni  Ni13  1  0.50049843  0.49898779  0.16723071  1
  Ni  Ni14  1  0.33400237  0.33401242  0.33400005  1
  Ni  Ni15  1  0.33253247  0.66580873  0.99950284  1
  Cr  Cr16  1  0.49996486  0.83409814  0.16663348  1
  Ni  Ni17  1  0.33257900  0.66595396  0.33469708  1
  Ni  Ni18  1  0.66825426  0.00153052  0.99950284  1
  Ni  Ni19  1  0.83400143  0.16721854  0.16723820  1
  Ni  Ni20  1  0.66810904  0.00148400  0.33469708  1
  Ni  Ni21  1  0.66694677  0.33360182  0.00058105  1
  Ni  Ni22  1  0.83374731  0.50031568  0.16680110  1
  Ni  Ni23  1  0.66594380  0.33262794  0.33264818  1
  Ni  Ni24  1  0.66805252  0.66601048  0.99883579  1
  Ni  Ni25  1  0.83507520  0.83356456  0.16723071  1
  Ni  Ni26  1  0.66702918  0.66703381  0.33437539  1
  Ni  Ni27  1  0.16704422  0.16701877  0.50064692  1
  Ni  Ni28  1  0.99975934  0.99967901  0.66686158  1
  Ni  Ni29  1  0.16703314  0.16702985  0.83344240  1
  Ni  Ni30  1  0.16843422  0.50020126  0.50033349  1
  Ni  Ni31  1  0.00089738  0.33316561  0.66799466  1
  Ni  Ni32  1  0.16683694  0.50018755  0.83354178  1
  Ni  Ni33  1  0.16716858  0.83388265  0.50009584  1
  Ni  Ni34  1  0.00228105  0.66824937  0.66796001  1
  Ni  Ni35  1  0.16715907  0.83387669  0.83401329  1
  Ni  Ni36  1  0.50018035  0.16689442  0.50009584  1
  Ni  Ni37  1  0.33420346  0.99985954  0.66709575  1
  Ni  Ni38  1  0.50018630  0.16690392  0.83401329  1
  Ni  Ni39  1  0.49876201  0.50025787  0.50011026  1
  Ni  Ni40  1  0.33438398  0.33430365  0.66686158  1
  Ni  Ni41  1  0.50028714  0.50029218  0.83372595  1
  Ni  Ni42  1  0.50009772  0.83396527  0.50056611  1
  Ni  Ni43  1  0.33287073  0.66694832  0.66686266  1
  Ni  Ni44  1  0.50013006  0.83393293  0.83352370  1
  Ni  Ni45  1  0.83386173  0.16562877  0.50033349  1
  Ni  Ni46  1  0.66711467  0.00119226  0.66686266  1
  Ni  Ni47  1  0.83387545  0.16722605  0.83354178  1
  Cr  Cr48  1  0.83442408  0.49963892  0.50063308  1
  Ni  Ni49  1  0.66581363  0.33178194  0.66796001  1
  Ni  Ni50  1  0.83394446  0.50011853  0.83392730  1
  Ni  Ni51  1  0.83380512  0.83530099  0.50011026  1
  Fe  Fe52  1  0.66614617  0.66791682  0.66786996  1
  Ni  Ni53  1  0.83377081  0.83377585  0.83372595  1
" 