2358,Ni94Fe2Cr2_12,-239.048580682474, 178.222893275829,Ni94Fe2Cr2,"# generated using pymatgen
 data_Cr2FeNi51
_symmetry_space_group_name_H-M   'P 1'
_cell_length_a   7.46148887
_cell_length_b   7.46148887
_cell_length_c   10.55213875
_cell_angle_alpha   90.00000000
_cell_angle_beta   90.00000000
_cell_angle_gamma   90.00000000
_symmetry_Int_Tables_number   1
_chemical_formula_structural   Cr2FeNi51
_chemical_formula_sum   'Cr2 Fe1 Ni51'
_cell_volume   587.47783237
_cell_formula_units_Z   1
loop_
 _symmetry_equiv_pos_site_id
 _symmetry_equiv_pos_as_xyz
  1  'x, y, z'
loop_
 _atom_site_type_symbol
 _atom_site_label
 _atom_site_symmetry_multiplicity
 _atom_site_fract_x
 _atom_site_fract_y
 _atom_site_fract_z
 _atom_site_occupancy
  Ni  Ni0  1  0.99956969  0.00169810  0.00101910  1
  Ni  Ni1  1  0.16729598  0.16726154  0.16681048  1
  Ni  Ni2  1  0.00163737  0.00166705  0.33309218  1
  Ni  Ni3  1  1.00025116  0.33370583  1.00024002  1
  Ni  Ni4  1  0.16729598  0.50015012  0.16681048  1
  Ni  Ni5  1  1.00035758  0.33370583  0.33384488  1
  Ni  Ni6  1  0.99956969  0.66571356  0.00101910  1
  Ni  Ni7  1  0.16689621  0.83370583  0.16747204  1
  Ni  Ni8  1  0.00163737  0.66574461  0.33309218  1
  Ni  Ni9  1  0.33475554  0.00122242  0.00133518  1
  Ni  Ni10  1  0.50025251  0.16743191  0.16703904  1
  Ni  Ni11  1  0.33371630  1.00023464  0.33384615  1
  Ni  Ni12  1  0.33361679  0.33370583  0.99955343  1
  Ni  Ni13  1  0.50025251  0.49997975  0.16703904  1
  Ni  Ni14  1  0.33356720  0.33370583  0.33429509  1
  Ni  Ni15  1  0.33475554  0.66618924  0.00133518  1
  Ni  Ni16  1  0.50048014  0.83370583  0.16703696  1
  Ni  Ni17  1  0.33371630  0.66717702  0.33384615  1
  Ni  Ni18  1  0.66678405  0.00054387  0.99989567  1
  Ni  Ni19  1  0.83356698  0.16703659  0.16726556  1
  Ni  Ni20  1  0.66575461  0.00151658  0.33308650  1
  Ni  Ni21  1  0.66724298  0.33370583  0.00047091  1
  Ni  Ni22  1  0.83356698  0.50037507  0.16726556  1
  Ni  Ni23  1  0.66718936  0.33370583  0.33384636  1
  Ni  Ni24  1  0.66678405  0.66686779  0.99989567  1
  Ni  Ni25  1  0.83374338  0.83370583  0.16659624  1
  Ni  Ni26  1  0.66575461  0.66589508  0.33308650  1
  Ni  Ni27  1  0.16711697  0.16708846  0.50053553  1
  Ni  Ni28  1  0.00091296  0.00295282  0.66704941  1
  Ni  Ni29  1  0.16713227  0.16876477  0.83371023  1
  Ni  Ni30  1  0.16711697  0.50032319  0.50053553  1
  Ni  Ni31  1  0.99962885  0.33370583  0.66703705  1
  Ni  Ni32  1  0.16713227  0.49864689  0.83371023  1
  Ni  Ni33  1  0.16864127  0.83370583  0.50007533  1
  Ni  Ni34  1  0.00091296  0.66445884  0.66704941  1
  Cr  Cr35  1  0.16674290  0.83370583  0.83386400  1
  Ni  Ni36  1  0.50044953  0.16723150  0.50029083  1
  Ni  Ni37  1  0.33471778  0.00050208  0.66598253  1
  Ni  Ni38  1  0.50048892  0.16728340  0.83374804  1
  Ni  Ni39  1  0.50044953  0.50018016  0.50029083  1
  Fe  Fe40  1  0.33387787  0.33370583  0.66704934  1
  Ni  Ni41  1  0.50048892  0.50012826  0.83374804  1
  Ni  Ni42  1  0.49871534  0.83370583  0.50051399  1
  Ni  Ni43  1  0.33471778  0.66690957  0.66598253  1
  Ni  Ni44  1  0.50201891  0.83370583  0.83354229  1
  Ni  Ni45  1  0.83356429  0.16878522  0.50028768  1
  Ni  Ni46  1  0.66546045  0.00184543  0.66812390  1
  Ni  Ni47  1  0.83353396  0.16716117  0.83356294  1
  Ni  Ni48  1  0.83356429  0.49862643  0.50028768  1
  Ni  Ni49  1  0.66797781  0.33370583  0.66680054  1
  Ni  Ni50  1  0.83353396  0.50025049  0.83356294  1
  Cr  Cr51  1  0.83370805  0.83370583  0.50081704  1
  Ni  Ni52  1  0.66546045  0.66556622  0.66812390  1
  Ni  Ni53  1  0.83203868  0.83370583  0.83369740  1
" 