555,Ni94Fe2Cr2_1,-239.036123622172, 177.628728386971,Ni94Fe2Cr2,"# generated using pymatgen
 data_Cr2FeNi51
_symmetry_space_group_name_H-M   'P 1'
_cell_length_a   7.46181355
_cell_length_b   7.46181355
_cell_length_c   10.55259793
_cell_angle_alpha   90.00000000
_cell_angle_beta   90.00000000
_cell_angle_gamma   90.00000000
_symmetry_Int_Tables_number   1
_chemical_formula_structural   Cr2FeNi51
_chemical_formula_sum   'Cr2 Fe1 Ni51'
_cell_volume   587.55452767
_cell_formula_units_Z   1
loop_
 _symmetry_equiv_pos_site_id
 _symmetry_equiv_pos_as_xyz
  1  'x, y, z'
loop_
 _atom_site_type_symbol
 _atom_site_label
 _atom_site_symmetry_multiplicity
 _atom_site_fract_x
 _atom_site_fract_y
 _atom_site_fract_z
 _atom_site_occupancy
  Ni  Ni0  1  0.99935331  0.00295747  0.99939101  1
  Ni  Ni1  1  0.16696142  0.16858824  0.16619288  1
  Ni  Ni2  1  0.99943026  0.00158792  0.33441457  1
  Ni  Ni3  1  0.00039124  0.33207540  0.00046474  1
  Ni  Ni4  1  0.16808917  0.49774558  0.16800555  1
  Ni  Ni5  1  0.00055162  0.33352689  0.33331574  1
  Cr  Cr6  1  0.99884519  0.66585883  0.99972625  1
  Cr  Cr7  1  0.16823221  0.83449626  0.16842438  1
  Ni  Ni8  1  0.99913160  0.66592987  0.33486254  1
  Ni  Ni9  1  0.33489765  0.00154624  0.99943977  1
  Ni  Ni10  1  0.50060057  0.16719308  0.16713246  1
  Ni  Ni11  1  0.33475448  0.00170788  0.33460340  1
  Ni  Ni12  1  0.33387143  0.33354638  0.00050479  1
  Ni  Ni13  1  0.50030476  0.49997838  0.16655379  1
  Ni  Ni14  1  0.33365435  0.33335853  0.33354325  1
  Ni  Ni15  1  0.33625265  0.66599882  0.99951511  1
  Ni  Ni16  1  0.50173877  0.83387357  0.16655052  1
  Ni  Ni17  1  0.33493577  0.66592846  0.33444438  1
  Ni  Ni18  1  0.66681934  0.00047068  0.00058355  1
  Ni  Ni19  1  0.83346979  0.16721810  0.16691213  1
  Ni  Ni20  1  0.66682339  1.00033669  0.33354857  1
  Ni  Ni21  1  0.66684496  0.33352660  0.00036164  1
  Ni  Ni22  1  0.83265348  0.49882927  0.16765819  1
  Ni  Ni23  1  0.66683657  0.33363335  0.33378419  1
  Ni  Ni24  1  0.66532876  0.66707031  1.00024198  1
  Ni  Ni25  1  0.83127852  0.83502591  0.16766511  1
  Ni  Ni26  1  0.66699521  0.66707552  0.33331382  1
  Ni  Ni27  1  0.16685470  0.16702265  0.50081733  1
  Ni  Ni28  1  1.00022982  1.00027753  0.66716659  1
  Fe  Fe29  1  0.16723564  0.16724511  0.83346994  1
  Ni  Ni30  1  0.16703554  0.50038934  0.50011344  1
  Ni  Ni31  1  0.00038357  0.33380923  0.66715025  1
  Ni  Ni32  1  0.16802566  0.50013847  0.83300292  1
  Ni  Ni33  1  0.16703392  0.83363123  0.50052852  1
  Ni  Ni34  1  1.00032634  0.66699384  0.66671727  1
  Ni  Ni35  1  0.16802559  0.83398808  0.83257450  1
  Ni  Ni36  1  0.50060071  0.16720460  0.50035630  1
  Ni  Ni37  1  0.33400540  0.00040707  0.66691290  1
  Ni  Ni38  1  0.50137139  0.16718961  0.83359199  1
  Ni  Ni39  1  0.50029089  0.50009023  0.50068645  1
  Ni  Ni40  1  0.33385716  0.33366670  0.66688158  1
  Ni  Ni41  1  0.49999457  0.49968732  0.83381864  1
  Ni  Ni42  1  0.50010616  0.83376284  0.50043472  1
  Ni  Ni43  1  0.33372569  0.66699220  0.66713668  1
  Ni  Ni44  1  0.49984131  0.83417199  0.83403786  1
  Ni  Ni45  1  0.83360024  0.16719985  0.50034856  1
  Ni  Ni46  1  0.66682714  0.00035808  0.66691030  1
  Ni  Ni47  1  0.83284946  0.16720321  0.83382669  1
  Ni  Ni48  1  0.83373358  0.49991331  0.50068405  1
  Ni  Ni49  1  0.66682247  0.33350580  0.66690710  1
  Ni  Ni50  1  0.83304640  0.49862578  0.83279193  1
  Ni  Ni51  1  0.83390545  0.83394538  0.50044725  1
  Ni  Ni52  1  0.66701391  0.66718091  0.66749920  1
  Ni  Ni53  1  0.83314987  0.83525442  0.83297176  1
" 