1117,Ni94Fe3Cr1_13,-239.050509619585, 177.891631912196,Ni94Fe3Cr1,"# generated using pymatgen
 data_Cr2FeNi51
_symmetry_space_group_name_H-M   'P 1'
_cell_length_a   7.46126287
_cell_length_b   7.46126287
_cell_length_c   10.55181914
_cell_angle_alpha   90.00000000
_cell_angle_beta   90.00000000
_cell_angle_gamma   90.00000000
_symmetry_Int_Tables_number   1
_chemical_formula_structural   Cr2FeNi51
_chemical_formula_sum   'Cr2 Fe1 Ni51'
_cell_volume   587.42445240
_cell_formula_units_Z   1
loop_
 _symmetry_equiv_pos_site_id
 _symmetry_equiv_pos_as_xyz
  1  'x, y, z'
loop_
 _atom_site_type_symbol
 _atom_site_label
 _atom_site_symmetry_multiplicity
 _atom_site_fract_x
 _atom_site_fract_y
 _atom_site_fract_z
 _atom_site_occupancy
  Ni  Ni0  1  0.99868176  1.00031567  0.00044944  1
  Ni  Ni1  1  0.16612725  0.16806527  0.16795428  1
  Ni  Ni2  1  1.00026252  1.00030667  0.33346074  1
  Ni  Ni3  1  1.00023820  0.33382355  1.00022682  1
  Ni  Ni4  1  0.16699231  0.50052482  0.16688150  1
  Ni  Ni5  1  1.00026291  0.33379965  0.33390100  1
  Ni  Ni6  1  1.00006303  0.66702960  0.99977483  1
  Ni  Ni7  1  0.16605091  0.83257356  0.16795209  1
  Ni  Ni8  1  1.00009967  0.66706157  0.33435334  1
  Cr  Cr9  1  0.33353683  1.00019390  0.99994544  1
  Ni  Ni10  1  0.50143672  0.16807340  0.16796326  1
  Ni  Ni11  1  0.33347916  1.00016702  0.33444414  1
  Ni  Ni12  1  0.33347765  0.33554886  1.00031062  1
  Ni  Ni13  1  0.50032537  0.50028749  0.16688219  1
  Ni  Ni14  1  0.33348284  0.33394462  0.33359012  1
  Ni  Ni15  1  0.33378977  0.66545027  1.00021647  1
  Ni  Ni16  1  0.50127553  0.83280327  0.16795957  1
  Ni  Ni17  1  0.33378308  0.66705410  0.33368235  1
  Ni  Ni18  1  0.66903614  1.00000174  1.00010905  1
  Ni  Ni19  1  0.83360999  0.16711968  0.16688226  1
  Ni  Ni20  1  0.66742453  1.00000470  0.33379586  1
  Ni  Ni21  1  0.66745016  0.33413758  0.99989075  1
  Ni  Ni22  1  0.83384608  0.50036987  0.16711229  1
  Ni  Ni23  1  0.66741608  0.33410226  0.33422912  1
  Ni  Ni24  1  0.66730650  0.66702510  0.00045181  1
  Ni  Ni25  1  0.83384720  0.83367319  0.16688258  1
  Ni  Ni26  1  0.66727452  0.66705454  0.33367944  1
  Ni  Ni27  1  0.16602942  0.16608832  0.49943270  1
  Ni  Ni28  1  1.00024658  0.00101128  0.66726134  1
  Ni  Ni29  1  0.16505445  0.16705489  0.83380463  1
  Ni  Ni30  1  0.16627358  0.50131166  0.49949008  1
  Ni  Ni31  1  0.99870886  0.33309834  0.66703498  1
  Ni  Ni32  1  0.16621114  0.50133002  0.83477474  1
  Ni  Ni33  1  0.16719812  0.83379206  0.50052891  1
  Fe  Fe34  1  0.99980430  0.66723403  0.66693186  1
  Ni  Ni35  1  0.16618665  0.83275566  0.83267524  1
  Ni  Ni36  1  0.50144598  0.16602592  0.49970541  1
  Ni  Ni37  1  0.33320525  0.99825991  0.66683534  1
  Ni  Ni38  1  0.50244100  0.16702992  0.83351029  1
  Ni  Ni39  1  0.50123316  0.50140347  0.49942759  1
  Cr  Cr40  1  0.33342424  0.33402999  0.66726558  1
  Ni  Ni41  1  0.50129535  0.50141456  0.83484520  1
  Ni  Ni42  1  0.50032727  0.83372319  0.50048955  1
  Ni  Ni43  1  0.33445096  0.66862887  0.66727236  1
  Ni  Ni44  1  0.50128567  0.83272268  0.83275085  1
  Ni  Ni45  1  0.83370824  0.16698969  0.50048937  1
  Ni  Ni46  1  0.66773619  0.99968844  0.66725688  1
  Ni  Ni47  1  0.83371058  0.16706283  0.83379062  1
  Ni  Ni48  1  0.83362339  0.50021407  0.50051170  1
  Ni  Ni49  1  0.66933518  0.33437826  0.66704062  1
  Ni  Ni50  1  0.83363941  0.50022772  0.83352211  1
  Ni  Ni51  1  0.83361233  0.83397258  0.50026896  1
  Ni  Ni52  1  0.66654717  0.66707344  0.66703245  1
  Ni  Ni53  1  0.83362201  0.83389945  0.83400248  1
" 