4756,Ni94Fe6_16,-226.291049738967, 142.425526002922,Ni94Fe6,"# generated using pymatgen
 data_Fe25Ni2
_symmetry_space_group_name_H-M   'P 1'
_cell_length_a   7.40866568
_cell_length_b   7.40866568
_cell_length_c   10.47743548
_cell_angle_alpha   90.00000000
_cell_angle_beta   90.00000000
_cell_angle_gamma   90.00000000
_symmetry_Int_Tables_number   1
_chemical_formula_structural   Fe25Ni2
_chemical_formula_sum   'Fe50 Ni4'
_cell_volume   575.08890641
_cell_formula_units_Z   2
loop_
 _symmetry_equiv_pos_site_id
 _symmetry_equiv_pos_as_xyz
  1  'x, y, z'
loop_
 _atom_site_type_symbol
 _atom_site_label
 _atom_site_symmetry_multiplicity
 _atom_site_fract_x
 _atom_site_fract_y
 _atom_site_fract_z
 _atom_site_occupancy
  Fe  Fe0  1  1.00333685  1.00384780  1.00384279  1
  Fe  Fe1  1  0.17030438  0.17100344  0.17100261  1
  Fe  Fe2  1  0.00403240  0.00454480  0.33736740  1
  Fe  Fe3  1  1.00339415  0.33654130  0.00476781  1
  Fe  Fe4  1  0.17021075  0.50363777  0.17099915  1
  Ni  Ni5  1  0.00417220  0.33761010  0.33771628  1
  Fe  Fe6  1  1.00329996  0.67143116  1.00393953  1
  Fe  Fe7  1  0.17070046  0.83717978  0.17060598  1
  Fe  Fe8  1  1.00393815  0.67000605  0.33727344  1
  Fe  Fe9  1  0.33777943  0.00394203  0.00403362  1
  Fe  Fe10  1  0.50424404  0.17012003  0.17030449  1
  Fe  Fe11  1  0.33654126  0.00458059  0.33736747  1
  Fe  Fe12  1  0.33821427  0.33693573  1.00363872  1
  Fe  Fe13  1  0.50384903  0.50403116  0.16996555  1
  Fe  Fe14  1  0.33658120  0.33727410  0.33717947  1
  Fe  Fe15  1  0.33821426  0.67094259  1.00363864  1
  Fe  Fe16  1  0.50424172  0.83766881  0.17040156  1
  Fe  Fe17  1  0.33663764  0.66996569  0.33727352  1
  Ni  Ni18  1  0.67016362  1.00370811  1.00339201  1
  Fe  Fe19  1  0.83727137  0.17060998  0.17060658  1
  Fe  Fe20  1  0.67124674  0.00448639  0.33653930  1
  Fe  Fe21  1  0.67021238  0.33697313  1.00290528  1
  Fe  Fe22  1  0.83776083  0.50363545  0.17109623  1
  Fe  Fe23  1  0.67120826  0.33736829  0.33800775  1
  Fe  Fe24  1  0.67030608  0.67099749  1.00373260  1
  Fe  Fe25  1  0.83687732  0.83757527  0.17020993  1
  Fe  Fe26  1  0.67124463  0.66996571  0.33727340  1
  Fe  Fe27  1  0.17030619  0.17081700  0.50354597  1
  Fe  Fe28  1  1.00339386  0.00448637  0.67061012  1
  Fe  Fe29  1  0.17124419  0.17124788  0.83727348  1
  Fe  Fe30  1  0.17021270  0.50373199  0.50345274  1
  Fe  Fe31  1  1.00333860  0.33717974  0.66987306  1
  Fe  Fe32  1  0.17120681  0.50403129  0.83737027  1
  Fe  Fe33  1  0.17070062  0.83727211  0.50403778  1
  Fe  Fe34  1  1.00329984  0.67015448  0.67060741  1
  Fe  Fe35  1  0.17124658  0.83654103  0.83717660  1
  Fe  Fe36  1  0.50424363  0.17072081  0.50424202  1
  Fe  Fe37  1  0.33772573  0.00458039  0.67041915  1
  Fe  Fe38  1  0.50454261  0.17120989  0.83727172  1
  Fe  Fe39  1  0.50424144  0.50373113  0.50497588  1
  Fe  Fe40  1  0.33827185  0.33757474  0.67100283  1
  Ni  Ni41  1  0.50417162  0.50381512  0.83725294  1
  Fe  Fe42  1  0.50384894  0.83736841  0.50375003  1
  Fe  Fe43  1  0.33821448  0.66966575  0.67090856  1
  Fe  Fe44  1  0.50414713  0.83697163  0.83766654  1
  Fe  Fe45  1  0.83727138  0.17120988  0.50394029  1
  Fe  Fe46  1  0.67070054  0.00454163  0.67115353  1
  Fe  Fe47  1  0.83603350  0.17124792  0.83727308  1
  Fe  Fe48  1  0.83736657  0.50333652  0.50384749  1
  Ni  Ni49  1  0.67058648  0.33729370  0.67073230  1
  Fe  Fe50  1  0.83646500  0.50363659  0.83687821  1
  Fe  Fe51  1  0.83727077  0.83727423  0.50394092  1
  Fe  Fe52  1  0.67030565  0.66960847  0.67081465  1
  Fe  Fe53  1  0.83642587  0.83693455  0.83766729  1
" 