5262,Ni94Fe3Cr1_2,-239.054446288033, 177.641775030642,Ni94Fe3Cr1,"# generated using pymatgen
 data_Cr2FeNi51
_symmetry_space_group_name_H-M   'P 1'
_cell_length_a   7.46300746
_cell_length_b   7.46300746
_cell_length_c   10.55428637
_cell_angle_alpha   90.00000000
_cell_angle_beta   90.00000000
_cell_angle_gamma   90.00000000
_symmetry_Int_Tables_number   1
_chemical_formula_structural   Cr2FeNi51
_chemical_formula_sum   'Cr2 Fe1 Ni51'
_cell_volume   587.83660353
_cell_formula_units_Z   1
loop_
 _symmetry_equiv_pos_site_id
 _symmetry_equiv_pos_as_xyz
  1  'x, y, z'
loop_
 _atom_site_type_symbol
 _atom_site_label
 _atom_site_symmetry_multiplicity
 _atom_site_fract_x
 _atom_site_fract_y
 _atom_site_fract_z
 _atom_site_occupancy
  Ni  Ni0  1  0.99881802  0.99948185  0.00104434  1
  Ni  Ni1  1  0.16683210  0.16704205  0.16717860  1
  Ni  Ni2  1  0.00029364  0.00031810  0.33367983  1
  Ni  Ni3  1  1.00012059  0.33398437  0.00086052  1
  Ni  Ni4  1  0.16691827  0.50003851  0.16671862  1
  Ni  Ni5  1  0.00072488  0.33338168  0.33362029  1
  Ni  Ni6  1  0.00101069  0.66734767  0.99997476  1
  Ni  Ni7  1  0.16683986  0.83372980  0.16679688  1
  Ni  Ni8  1  0.00054951  0.66711275  0.33343257  1
  Fe  Fe9  1  0.33450447  0.99941547  0.00111559  1
  Ni  Ni10  1  0.50014410  0.16704156  0.16679601  1
  Ni  Ni11  1  0.33360446  0.00050168  0.33338194  1
  Ni  Ni12  1  0.33444241  0.33510319  0.00124222  1
  Ni  Ni13  1  0.50024215  0.50022173  0.16690600  1
  Ni  Ni14  1  0.33360427  0.33362900  0.33348546  1
  Ni  Ni15  1  0.33336912  0.66604206  0.99978791  1
  Ni  Ni16  1  0.50032056  0.83354552  0.16698459  1
  Ni  Ni17  1  0.33359547  0.66668014  0.33386842  1
  Ni  Ni18  1  0.66755106  0.00055383  0.99997440  1
  Ni  Ni19  1  0.83383721  0.16696464  0.16671806  1
  Ni  Ni20  1  0.66691526  0.00032668  0.33368047  1
  Ni  Ni21  1  0.66624976  0.33291238  0.99978829  1
  Ni  Ni22  1  0.83365133  0.50021471  0.16686575  1
  Ni  Ni23  1  0.66648244  0.33337265  0.33362073  1
  Ni  Ni24  1  0.66643342  0.66734589  1.00021786  1
  Ni  Ni25  1  0.83365305  0.83363231  0.16690641  1
  Ni  Ni26  1  0.66666733  0.66711315  0.33343216  1
  Ni  Ni27  1  0.16610688  0.16608944  0.49929869  1
  Ni  Ni28  1  0.99927128  0.99929303  0.66608762  1
  Cr  Cr29  1  0.16591117  0.16625835  0.83427784  1
  Ni  Ni30  1  0.16609053  0.50088065  0.49967935  1
  Ni  Ni31  1  0.99789017  0.33422192  0.66633069  1
  Ni  Ni32  1  0.16608061  0.50286614  0.83441203  1
  Ni  Ni33  1  0.16718117  0.83384290  0.50075347  1
  Ni  Ni34  1  0.00059031  0.66729856  0.66740408  1
  Ni  Ni35  1  0.16706728  0.83173283  0.83326244  1
  Ni  Ni36  1  0.50087074  0.16608926  0.49968053  1
  Ni  Ni37  1  0.33444339  0.99767177  0.66657220  1
  Ni  Ni38  1  0.50297229  0.16620219  0.83433494  1
  Ni  Ni39  1  0.50106827  0.50106213  0.49949441  1
  Cr  Cr40  1  0.33445922  0.33467463  0.66588022  1
  Ni  Ni41  1  0.50126542  0.50124311  0.83441090  1
  Ni  Ni42  1  0.49997887  0.83365923  0.50056680  1
  Ni  Ni43  1  0.33336907  0.66868137  0.66715662  1
  Ni  Ni44  1  0.50027785  0.83336093  0.83326382  1
  Ni  Ni45  1  0.83383483  0.16717850  0.50075359  1
  Ni  Ni46  1  0.66710061  0.00036734  0.66715729  1
  Ni  Ni47  1  0.83184182  0.16718975  0.83334109  1
  Ni  Ni48  1  0.83365089  0.49998769  0.50056682  1
  Ni  Ni49  1  0.66848097  0.33314625  0.66740427  1
  Ni  Ni50  1  0.83346530  0.50017406  0.83338022  1
  Ni  Ni51  1  0.83365156  0.83364553  0.50032351  1
  Ni  Ni52  1  0.66685212  0.66729752  0.66716128  1
  Ni  Ni53  1  0.83346857  0.83344815  0.83358325  1
" 