767,Ni94Fe2Cr2_10,-239.052465501652, 177.934977349711,Ni94Fe2Cr2,"# generated using pymatgen
 data_Cr2FeNi51
_symmetry_space_group_name_H-M   'P 1'
_cell_length_a   7.46127315
_cell_length_b   7.46127315
_cell_length_c   10.55183368
_cell_angle_alpha   90.00000000
_cell_angle_beta   90.00000000
_cell_angle_gamma   90.00000000
_symmetry_Int_Tables_number   1
_chemical_formula_structural   Cr2FeNi51
_chemical_formula_sum   'Cr2 Fe1 Ni51'
_cell_volume   587.42688068
_cell_formula_units_Z   1
loop_
 _symmetry_equiv_pos_site_id
 _symmetry_equiv_pos_as_xyz
  1  'x, y, z'
loop_
 _atom_site_type_symbol
 _atom_site_label
 _atom_site_symmetry_multiplicity
 _atom_site_fract_x
 _atom_site_fract_y
 _atom_site_fract_z
 _atom_site_occupancy
  Ni  Ni0  1  0.00038696  0.99872245  0.99991089  1
  Ni  Ni1  1  0.16944642  0.16727253  0.16678219  1
  Cr  Cr2  1  0.00038696  1.00037404  0.33349842  1
  Cr  Cr3  1  0.00038696  0.33344614  0.00098731  1
  Ni  Ni4  1  0.16797702  0.50146756  0.16819289  1
  Ni  Ni5  1  0.00038696  0.33521412  0.33394504  1
  Ni  Ni6  1  0.00038696  0.66867214  0.00067015  1
  Ni  Ni7  1  0.16827673  0.83239862  0.16564937  1
  Ni  Ni8  1  0.00038696  0.66550711  0.33349528  1
  Ni  Ni9  1  0.33386597  1.00021181  0.00066939  1
  Ni  Ni10  1  0.50038696  0.16698387  0.16709888  1
  Ni  Ni11  1  0.33537833  1.00023518  0.33374118  1
  Ni  Ni12  1  0.33546180  0.33383459  1.00035137  1
  Ni  Ni13  1  0.50038696  0.50030679  0.16616063  1
  Ni  Ni14  1  0.33400637  0.33402612  0.33350486  1
  Ni  Ni15  1  0.33398669  0.66715590  0.00038718  1
  Ni  Ni16  1  0.50038696  0.83386241  0.16733008  1
  Ni  Ni17  1  0.33418633  0.66689650  0.33374147  1
  Ni  Ni18  1  0.66690795  1.00021181  0.00066939  1
  Ni  Ni19  1  0.83132750  0.16727253  0.16678219  1
  Ni  Ni20  1  0.66539560  1.00023518  0.33374118  1
  Ni  Ni21  1  0.66531213  0.33383459  1.00035137  1
  Ni  Ni22  1  0.83279691  0.50146756  0.16819289  1
  Ni  Ni23  1  0.66676755  0.33402612  0.33350486  1
  Ni  Ni24  1  0.66678723  0.66715590  0.00038718  1
  Ni  Ni25  1  0.83249720  0.83239862  0.16564937  1
  Ni  Ni26  1  0.66658760  0.66689650  0.33374147  1
  Ni  Ni27  1  0.16837854  0.16834662  0.50161420  1
  Ni  Ni28  1  0.00038696  0.00040149  0.66774172  1
  Ni  Ni29  1  0.16865369  0.16657626  0.83281341  1
  Ni  Ni30  1  0.16693300  0.50039832  0.50017590  1
  Ni  Ni31  1  0.00038696  0.33369480  0.66653978  1
  Ni  Ni32  1  0.16714831  0.50140757  0.83283123  1
  Ni  Ni33  1  0.16821667  0.83240621  0.50161945  1
  Ni  Ni34  1  0.00038696  0.66707079  0.66697638  1
  Ni  Ni35  1  0.16754441  0.83315999  0.83389278  1
  Ni  Ni36  1  0.50038696  0.16706584  0.50017467  1
  Ni  Ni37  1  0.33384747  1.00022692  0.66675823  1
  Ni  Ni38  1  0.50038696  0.16623872  0.83389583  1
  Ni  Ni39  1  0.50038696  0.50023719  0.50111076  1
  Ni  Ni40  1  0.33376676  0.33377779  0.66723317  1
  Fe  Fe41  1  0.50038696  0.50057744  0.83363381  1
  Ni  Ni42  1  0.50038696  0.83385429  0.50017828  1
  Ni  Ni43  1  0.33389746  0.66717222  0.66698622  1
  Ni  Ni44  1  0.50038696  0.83472489  0.83365909  1
  Ni  Ni45  1  0.83239538  0.16834662  0.50161420  1
  Ni  Ni46  1  0.66692645  1.00022692  0.66675823  1
  Ni  Ni47  1  0.83212023  0.16657626  0.83281341  1
  Ni  Ni48  1  0.83384093  0.50039832  0.50017590  1
  Ni  Ni49  1  0.66700716  0.33377779  0.66723317  1
  Ni  Ni50  1  0.83362562  0.50140757  0.83283123  1
  Ni  Ni51  1  0.83255725  0.83240621  0.50161945  1
  Ni  Ni52  1  0.66687646  0.66717222  0.66698622  1
  Ni  Ni53  1  0.83322951  0.83315999  0.83389278  1
" 