2490,Ni94Fe6_6,-226.350402374432, 143.156112906961,Ni94Fe6,"# generated using pymatgen
 data_Fe25Ni2
_symmetry_space_group_name_H-M   'P 1'
_cell_length_a   7.41039495
_cell_length_b   7.41039495
_cell_length_c   10.47988104
_cell_angle_alpha   90.00000000
_cell_angle_beta   90.00000000
_cell_angle_gamma   90.00000000
_symmetry_Int_Tables_number   1
_chemical_formula_structural   Fe25Ni2
_chemical_formula_sum   'Fe50 Ni4'
_cell_volume   575.49169788
_cell_formula_units_Z   2
loop_
 _symmetry_equiv_pos_site_id
 _symmetry_equiv_pos_as_xyz
  1  'x, y, z'
loop_
 _atom_site_type_symbol
 _atom_site_label
 _atom_site_symmetry_multiplicity
 _atom_site_fract_x
 _atom_site_fract_y
 _atom_site_fract_z
 _atom_site_occupancy
  Fe  Fe0  1  1.00352697  0.00420862  0.00420730  1
  Fe  Fe1  1  0.16990183  0.17040038  0.17039896  1
  Fe  Fe2  1  1.00343838  0.00412000  0.33677105  1
  Fe  Fe3  1  1.00343858  0.33686135  0.00420446  1
  Fe  Fe4  1  0.16987111  0.50320102  0.17111101  1
  Fe  Fe5  1  1.00373299  0.33715579  0.33706643  1
  Fe  Fe6  1  0.00391417  0.67039754  1.00382172  1
  Fe  Fe7  1  0.16977847  0.83786604  0.17048918  1
  Fe  Fe8  1  0.00420828  0.67019200  0.33754192  1
  Fe  Fe9  1  0.33745156  1.00334870  1.00352709  1
  Fe  Fe10  1  0.50440983  0.17058141  0.17057936  1
  Fe  Fe11  1  0.33724650  1.00364232  0.33706646  1
  Fe  Fe12  1  0.33706516  0.33724649  1.00320002  1
  Fe  Fe13  1  0.50453101  0.50311059  0.17048918  1
  Fe  Fe14  1  0.33685981  0.33754049  0.33816285  1
  Fe  Fe15  1  0.33744962  0.67087244  1.00362009  1
  Fe  Fe16  1  0.50444275  0.83777559  0.16986765  1
  Fe  Fe17  1  0.33686144  0.67028426  0.33735893  1
  Fe  Fe18  1  0.67048874  0.00382406  1.00382224  1
  Ni  Ni19  1  0.83715588  0.17048843  0.17048919  1
  Fe  Fe20  1  0.67078278  0.00411803  0.33686403  1
  Fe  Fe21  1  0.67096364  0.33685940  0.00429739  1
  Fe  Fe22  1  0.83706536  0.50323397  0.17039899  1
  Fe  Fe23  1  0.67087509  0.33677083  0.33668098  1
  Fe  Fe24  1  0.67010358  0.67078415  1.00343663  1
  Fe  Fe25  1  0.83724638  0.83774485  0.17057938  1
  Fe  Fe26  1  0.67039753  0.67057884  0.33715668  1
  Fe  Fe27  1  0.17087529  0.17137370  0.50420822  1
  Fe  Fe28  1  0.00435237  0.00453369  0.67048922  1
  Fe  Fe29  1  0.17149429  0.17007417  0.83686098  1
  Ni  Ni30  1  0.17061156  0.50370010  0.50394470  1
  Fe  Fe31  1  0.00470582  0.33745025  0.67019662  1
  Fe  Fe32  1  0.17140367  0.50414732  0.83623989  1
  Fe  Fe33  1  0.17030968  0.83656735  0.50364264  1
  Fe  Fe34  1  0.00473867  0.66948433  0.67010406  1
  Fe  Fe35  1  0.17098685  0.83724639  0.83733575  1
  Fe  Fe36  1  0.50281766  0.17149411  0.50411736  1
  Fe  Fe37  1  0.33753976  0.00411550  0.67087358  1
  Fe  Fe38  1  0.50343723  0.17019654  0.83677104  1
  Fe  Fe39  1  0.50293817  0.50343652  0.50402765  1
  Ni  Ni40  1  0.33713348  0.33727931  0.67046637  1
  Fe  Fe41  1  0.50361792  0.50411488  0.83695116  1
  Fe  Fe42  1  0.50329171  0.83653616  0.50435443  1
  Fe  Fe43  1  0.33715482  0.66989948  0.67048808  1
  Ni  Ni44  1  0.50372226  0.83715573  0.83705621  1
  Fe  Fe45  1  0.83777555  0.17102004  0.50311122  1
  Fe  Fe46  1  0.66957497  0.00414985  0.67078073  1
  Fe  Fe47  1  0.83653631  0.16978057  0.83786711  1
  Fe  Fe48  1  0.83774435  0.50400199  0.50382306  1
  Fe  Fe49  1  0.66999230  0.33706520  0.67048914  1
  Fe  Fe50  1  0.83644588  0.50462156  0.83724550  1
  Fe  Fe51  1  0.83786623  0.83644547  0.50382593  1
  Fe  Fe52  1  0.66957324  0.67025253  0.67087370  1
  Fe  Fe53  1  0.83656818  0.83706537  0.83706219  1
" 