4501,Ni95Fe3Cr0_11,-240.208990961865, 183.235320503548,Ni95Fe3Cr0,"# generated using pymatgen
 data_CrFe2Ni51
_symmetry_space_group_name_H-M   'P 1'
_cell_length_a   7.45665412
_cell_length_b   7.45665412
_cell_length_c   10.54530138
_cell_angle_alpha   90.00000000
_cell_angle_beta   90.00000000
_cell_angle_gamma   90.00000000
_symmetry_Int_Tables_number   1
_chemical_formula_structural   CrFe2Ni51
_chemical_formula_sum   'Cr1 Fe2 Ni51'
_cell_volume   586.33658486
_cell_formula_units_Z   1
loop_
 _symmetry_equiv_pos_site_id
 _symmetry_equiv_pos_as_xyz
  1  'x, y, z'
loop_
 _atom_site_type_symbol
 _atom_site_label
 _atom_site_symmetry_multiplicity
 _atom_site_fract_x
 _atom_site_fract_y
 _atom_site_fract_z
 _atom_site_occupancy
  Ni  Ni0  1  0.00156899  1.00046475  0.00079402  1
  Ni  Ni1  1  0.16739064  0.16762592  0.16717208  1
  Ni  Ni2  1  1.00066794  0.00075323  0.33399976  1
  Ni  Ni3  1  0.00208566  0.33368500  0.00079468  1
  Ni  Ni4  1  0.16714410  0.50023813  0.16689070  1
  Ni  Ni5  1  1.00023471  0.33380585  0.33356594  1
  Ni  Ni6  1  1.00040913  0.66793859  0.00072320  1
  Ni  Ni7  1  0.16714414  0.83422628  0.16716874  1
  Ni  Ni8  1  1.00042857  0.66753195  0.33375395  1
  Ni  Ni9  1  0.33325721  1.00054092  0.00072307  1
  Ni  Ni10  1  0.49975206  0.16664576  0.16830004  1
  Ni  Ni11  1  0.33405427  0.00074584  0.33399982  1
  Ni  Ni12  1  0.33274254  0.33360811  0.00072296  1
  Ni  Ni13  1  0.50007465  0.50129347  0.16798354  1
  Ni  Ni14  1  0.33448766  0.33381323  0.33356583  1
  Ni  Ni15  1  0.33434096  0.66793980  1.00068761  1
  Ni  Ni16  1  0.50105561  0.83414919  0.16699834  1
  Ni  Ni17  1  0.33430107  0.66753199  0.33375397  1
  Fe  Fe18  1  0.66708247  0.99866428  0.00097644  1
  Ni  Ni19  1  0.83494831  0.16664532  0.16782666  1
  Ni  Ni20  1  0.66736844  0.00093950  0.33333915  1
  Cr  Cr21  1  0.66719123  0.33487157  0.00086740  1
  Ni  Ni22  1  0.83487155  0.50153828  0.16822754  1
  Ni  Ni23  1  0.66736846  0.33405215  0.33418738  1
  Ni  Ni24  1  0.66734088  0.66845716  0.00072281  1
  Ni  Ni25  1  0.83389063  0.83390311  0.16724339  1
  Ni  Ni26  1  0.66736109  0.66709791  0.33381219  1
  Ni  Ni27  1  0.16739154  0.16737009  0.50067197  1
  Ni  Ni28  1  0.00077253  1.00064838  0.66729646  1
  Ni  Ni29  1  0.16800505  0.16762577  0.83424595  1
  Ni  Ni30  1  0.16714402  0.50047329  0.50091853  1
  Ni  Ni31  1  1.00034017  0.33391123  0.66772941  1
  Ni  Ni32  1  0.16691950  0.50001381  0.83428144  1
  Ni  Ni33  1  0.16714396  0.83424743  0.50091859  1
  Ni  Ni34  1  1.00044960  0.66753096  0.66761321  1
  Ni  Ni35  1  0.16692025  0.83445056  0.83400357  1
  Ni  Ni36  1  0.50067471  0.16735915  0.50067243  1
  Ni  Ni37  1  0.33405556  0.00072493  0.66736763  1
  Ni  Ni38  1  0.49913771  0.16664532  0.83311794  1
  Ni  Ni39  1  0.50091441  0.50047697  0.50091845  1
  Ni  Ni40  1  0.33448811  0.33383418  0.66780130  1
  Ni  Ni41  1  0.50030081  0.50106771  0.83318954  1
  Ni  Ni42  1  0.50092543  0.83425471  0.50091853  1
  Ni  Ni43  1  0.33430108  0.66753197  0.66764933  1
  Ni  Ni44  1  0.50128140  0.83437525  0.83417505  1
  Ni  Ni45  1  0.83402508  0.16735913  0.50114491  1
  Ni  Ni46  1  0.66726431  0.00083526  0.66795767  1
  Fe  Fe47  1  0.83519778  0.16675912  0.83286743  1
  Ni  Ni48  1  0.83403233  0.50072406  0.50067236  1
  Ni  Ni49  1  0.66726350  0.33415686  0.66710858  1
  Ni  Ni50  1  0.83487104  0.50215449  0.83318983  1
  Ni  Ni51  1  0.83402137  0.83400725  0.50067204  1
  Ni  Ni52  1  0.66734026  0.66709778  0.66755523  1
  Ni  Ni53  1  0.83388960  0.83329113  0.83417548  1
" 