5555,Ni95Fe3Cr0_5,-240.193542799407, 183.330912856724,Ni95Fe3Cr0,"# generated using pymatgen
 data_CrFe2Ni51
_symmetry_space_group_name_H-M   'P 1'
_cell_length_a   7.45607780
_cell_length_b   7.45607780
_cell_length_c   10.54448635
_cell_angle_alpha   90.00000000
_cell_angle_beta   90.00000000
_cell_angle_gamma   90.00000000
_symmetry_Int_Tables_number   1
_chemical_formula_structural   CrFe2Ni51
_chemical_formula_sum   'Cr1 Fe2 Ni51'
_cell_volume   586.20064421
_cell_formula_units_Z   1
loop_
 _symmetry_equiv_pos_site_id
 _symmetry_equiv_pos_as_xyz
  1  'x, y, z'
loop_
 _atom_site_type_symbol
 _atom_site_label
 _atom_site_symmetry_multiplicity
 _atom_site_fract_x
 _atom_site_fract_y
 _atom_site_fract_z
 _atom_site_occupancy
  Ni  Ni0  1  1.00031567  1.00005476  1.00051735  1
  Ni  Ni1  1  0.16740230  0.16731347  0.16709464  1
  Ni  Ni2  1  1.00038001  1.00057381  0.33393487  1
  Ni  Ni3  1  1.00022252  0.33478796  0.00076438  1
  Ni  Ni4  1  0.16740230  0.50065242  0.16743378  1
  Ni  Ni5  1  1.00063651  0.33449074  0.33365964  1
  Ni  Ni6  1  0.00184774  0.66737772  0.00075680  1
  Ni  Ni7  1  0.16740230  0.83423966  0.16815100  1
  Ni  Ni8  1  0.00085605  0.66712118  0.33403086  1
  Ni  Ni9  1  0.33448892  1.00005476  1.00051735  1
  Ni  Ni10  1  0.50045388  0.16717856  0.16778538  1
  Ni  Ni11  1  0.33442458  1.00057381  0.33393487  1
  Ni  Ni12  1  0.33458207  0.33478796  0.00076438  1
  Ni  Ni13  1  0.50051846  0.50086649  0.16778024  1
  Ni  Ni14  1  0.33416808  0.33449074  0.33365964  1
  Ni  Ni15  1  0.33295685  0.66737772  0.00075680  1
  Ni  Ni16  1  0.50070087  0.83414672  0.16739165  1
  Ni  Ni17  1  0.33394854  0.66712118  0.33403086  1
  Ni  Ni18  1  0.66740230  0.00162310  0.00096532  1
  Ni  Ni19  1  0.83435071  0.16717856  0.16778538  1
  Ni  Ni20  1  0.66740230  0.00082657  0.33381410  1
  Ni  Ni21  1  0.66740230  0.33317356  1.00051099  1
  Ni  Ni22  1  0.83428613  0.50086649  0.16778024  1
  Ni  Ni23  1  0.66740230  0.33399151  0.33458933  1
  Fe  Fe24  1  0.66740230  0.66707350  0.00083140  1
  Ni  Ni25  1  0.83410372  0.83414672  0.16739165  1
  Ni  Ni26  1  0.66740230  0.66738885  0.33351934  1
  Ni  Ni27  1  0.16740230  0.16807298  0.50091775  1
  Ni  Ni28  1  0.00207266  1.00050968  0.66768608  1
  Ni  Ni29  1  0.16740230  0.16741185  0.83420790  1
  Ni  Ni30  1  0.16740230  0.49973917  0.50067241  1
  Ni  Ni31  1  1.00064109  0.33449313  0.66778960  1
  Ni  Ni32  1  0.16740230  0.50064317  0.83410312  1
  Fe  Fe33  1  0.16740230  0.83400921  0.50064597  1
  Ni  Ni34  1  0.00093608  0.66715268  0.66735897  1
  Ni  Ni35  1  0.16740230  0.83415194  0.83315235  1
  Ni  Ni36  1  0.49896499  0.16794289  0.49978510  1
  Ni  Ni37  1  0.33273193  1.00050968  0.66768608  1
  Ni  Ni38  1  0.49936797  0.16822134  0.83463070  1
  Ni  Ni39  1  0.50039258  0.50141607  0.50091385  1
  Ni  Ni40  1  0.33416350  0.33449313  0.66778960  1
  Ni  Ni41  1  0.50048173  0.50090454  0.83356180  1
  Ni  Ni42  1  0.50061591  0.83288904  0.49983499  1
  Ni  Ni43  1  0.33386851  0.66715268  0.66735897  1
  Ni  Ni44  1  0.49973526  0.83305240  0.83504433  1
  Ni  Ni45  1  0.83583960  0.16794289  0.49978510  1
  Cr  Cr46  1  0.66740230  0.00146173  0.66744819  1
  Ni  Ni47  1  0.83543662  0.16822134  0.83463070  1
  Ni  Ni48  1  0.83441201  0.50141607  0.50091385  1
  Ni  Ni49  1  0.66740230  0.33570808  0.66707352  1
  Ni  Ni50  1  0.83432286  0.50090454  0.83356180  1
  Ni  Ni51  1  0.83418868  0.83288904  0.49983499  1
  Ni  Ni52  1  0.66740230  0.66588375  0.66813970  1
  Ni  Ni53  1  0.83506933  0.83305240  0.83504433  1
" 