4076,Ni95Fe3Cr1_8,-239.036552639093, 177.516616034927,Ni95Fe3Cr1,"# generated using pymatgen
 data_Cr2FeNi51
_symmetry_space_group_name_H-M   'P 1'
_cell_length_a   7.45978309
_cell_length_b   7.45978309
_cell_length_c   10.54972643
_cell_angle_alpha   90.00000000
_cell_angle_beta   90.00000000
_cell_angle_gamma   90.00000000
_symmetry_Int_Tables_number   1
_chemical_formula_structural   Cr2FeNi51
_chemical_formula_sum   'Cr2 Fe1 Ni51'
_cell_volume   587.07501435
_cell_formula_units_Z   1
loop_
 _symmetry_equiv_pos_site_id
 _symmetry_equiv_pos_as_xyz
  1  'x, y, z'
loop_
 _atom_site_type_symbol
 _atom_site_label
 _atom_site_symmetry_multiplicity
 _atom_site_fract_x
 _atom_site_fract_y
 _atom_site_fract_z
 _atom_site_occupancy
  Ni  Ni0  1  0.00048691  0.00048691  0.99992392  1
  Ni  Ni1  1  0.16713996  0.16713996  0.16715358  1
  Ni  Ni2  1  0.00048691  0.00048691  0.33438323  1
  Ni  Ni3  1  0.00066594  0.33388547  1.00022129  1
  Ni  Ni4  1  0.16716274  0.50050111  0.16715358  1
  Ni  Ni5  1  0.00066594  0.33388547  0.33408587  1
  Ni  Ni6  1  1.00030788  0.66708835  1.00022129  1
  Ni  Ni7  1  0.16715416  0.83381967  0.16715358  1
  Ni  Ni8  1  1.00030788  0.66708835  0.33408587  1
  Ni  Ni9  1  0.33388547  0.00066594  1.00022129  1
  Ni  Ni10  1  0.50050111  0.16716274  0.16715358  1
  Ni  Ni11  1  0.33388547  0.00066594  0.33408587  1
  Ni  Ni12  1  0.33364136  0.33364136  1.00035099  1
  Ni  Ni13  1  0.50048691  0.50048691  0.16715358  1
  Ni  Ni14  1  0.33364136  0.33364136  0.33395616  1
  Ni  Ni15  1  0.33382044  0.66715338  0.99979067  1
  Ni  Ni16  1  0.50047271  0.83381109  0.16715358  1
  Ni  Ni17  1  0.33382044  0.66715338  0.33451649  1
  Ni  Ni18  1  0.66708835  1.00030788  1.00022129  1
  Ni  Ni19  1  0.83381967  0.16715416  0.16715358  1
  Ni  Ni20  1  0.66708835  1.00030788  0.33408587  1
  Ni  Ni21  1  0.66715338  0.33382044  0.99979067  1
  Ni  Ni22  1  0.83381109  0.50047271  0.16715358  1
  Ni  Ni23  1  0.66715338  0.33382044  0.33451649  1
  Ni  Ni24  1  0.66733247  0.66733247  1.00035099  1
  Ni  Ni25  1  0.83383386  0.83383386  0.16715358  1
  Ni  Ni26  1  0.66733247  0.66733247  0.33395616  1
  Ni  Ni27  1  0.16643526  0.16643526  0.49957527  1
  Fe  Fe28  1  0.00048691  0.00048691  0.66715358  1
  Ni  Ni29  1  0.16643526  0.16643526  0.83473189  1
  Ni  Ni30  1  0.16634478  0.50153284  0.49988157  1
  Ni  Ni31  1  0.99891483  0.33434049  0.66715358  1
  Ni  Ni32  1  0.16634478  0.50153284  0.83442559  1
  Ni  Ni33  1  0.16748135  0.83349248  0.50085491  1
  Ni  Ni34  1  0.00205899  0.66663333  0.66715358  1
  Ni  Ni35  1  0.16748135  0.83349248  0.83345224  1
  Ni  Ni36  1  0.50153284  0.16634478  0.49988157  1
  Ni  Ni37  1  0.33434049  0.99891483  0.66715358  1
  Ni  Ni38  1  0.50153284  0.16634478  0.83442559  1
  Ni  Ni39  1  0.50048691  0.50048691  0.49887312  1
  Cr  Cr40  1  0.33358978  0.33358978  0.66715358  1
  Ni  Ni41  1  0.50048691  0.50048691  0.83543403  1
  Ni  Ni42  1  0.49944099  0.83462904  0.49988157  1
  Ni  Ni43  1  0.33164791  0.66932591  0.66715358  1
  Ni  Ni44  1  0.49944099  0.83462904  0.83442559  1
  Ni  Ni45  1  0.83349248  0.16748135  0.50085491  1
  Ni  Ni46  1  0.66663333  0.00205899  0.66715358  1
  Ni  Ni47  1  0.83349248  0.16748135  0.83345224  1
  Ni  Ni48  1  0.83462904  0.49944099  0.49988157  1
  Ni  Ni49  1  0.66932591  0.33164791  0.66715358  1
  Ni  Ni50  1  0.83462904  0.49944099  0.83442559  1
  Ni  Ni51  1  0.83453856  0.83453856  0.49957527  1
  Cr  Cr52  1  0.66738404  0.66738404  0.66715358  1
  Ni  Ni53  1  0.83453856  0.83453856  0.83473189  1
" 