412,Ni95Fe3Cr0_4,-240.18867255853, 183.019422327711,Ni95Fe3Cr0,"# generated using pymatgen
 data_CrFe2Ni51
_symmetry_space_group_name_H-M   'P 1'
_cell_length_a   7.45611773
_cell_length_b   7.45611773
_cell_length_c   10.54454282
_cell_angle_alpha   90.00000000
_cell_angle_beta   90.00000000
_cell_angle_gamma   90.00000000
_symmetry_Int_Tables_number   1
_chemical_formula_structural   CrFe2Ni51
_chemical_formula_sum   'Cr1 Fe2 Ni51'
_cell_volume   586.21006182
_cell_formula_units_Z   1
loop_
 _symmetry_equiv_pos_site_id
 _symmetry_equiv_pos_as_xyz
  1  'x, y, z'
loop_
 _atom_site_type_symbol
 _atom_site_label
 _atom_site_symmetry_multiplicity
 _atom_site_fract_x
 _atom_site_fract_y
 _atom_site_fract_z
 _atom_site_occupancy
  Ni  Ni0  1  0.99974741  0.99961059  0.99987797  1
  Cr  Cr1  1  0.16720979  0.16758944  0.16721589  1
  Ni  Ni2  1  0.99983157  0.99983090  0.33489660  1
  Ni  Ni3  1  0.99950964  0.33528959  0.99985292  1
  Ni  Ni4  1  0.16747706  0.50232694  0.16737825  1
  Ni  Ni5  1  0.99985424  0.33494499  0.33499935  1
  Ni  Ni6  1  1.00063762  0.66726000  0.00097960  1
  Ni  Ni7  1  0.16714724  0.83219430  0.16772962  1
  Ni  Ni8  1  0.00076115  0.66750577  0.33384757  1
  Ni  Ni9  1  0.33522973  0.99956950  0.99990079  1
  Ni  Ni10  1  0.50260492  0.16765199  0.16772962  1
  Ni  Ni11  1  0.33500421  0.99979502  0.33527397  1
  Ni  Ni12  1  0.33518864  0.33505182  0.99987797  1
  Ni  Ni13  1  0.50059233  0.50065816  0.16705417  1
  Ni  Ni14  1  0.33496833  0.33496766  0.33489660  1
  Ni  Ni15  1  0.33401707  0.66753875  0.00097800  1
  Ni  Ni16  1  0.50091300  0.83388623  0.16740126  1
  Ni  Ni17  1  0.33416116  0.66740835  0.33381999  1
  Ni  Ni18  1  0.66726048  0.00078215  0.00097800  1
  Ni  Ni19  1  0.83247229  0.16732217  0.16737825  1
  Ni  Ni20  1  0.66739088  1.00063806  0.33381999  1
  Ni  Ni21  1  0.66753923  0.33416161  0.00097960  1
  Ni  Ni22  1  0.83413852  0.50066070  0.16776898  1
  Ni  Ni23  1  0.66729346  0.33403808  0.33384757  1
  Ni  Ni24  1  0.66754398  0.66725524  1.00039589  1
  Ni  Ni25  1  0.83414107  0.83420690  0.16705417  1
  Ni  Ni26  1  0.66725995  0.66753928  0.33404738  1
  Ni  Ni27  1  0.16686683  0.16793240  0.50162206  1
  Ni  Ni28  1  1.00067043  1.00064929  0.66747725  1
  Fe  Fe29  1  0.16748600  0.16731322  0.83368452  1
  Ni  Ni30  1  0.16811383  0.50082299  0.50046829  1
  Ni  Ni31  1  1.00069506  0.33410416  0.66737832  1
  Ni  Ni32  1  0.16747356  0.50146987  0.83432002  1
  Ni  Ni33  1  0.16685818  0.83343942  0.50048005  1
  Ni  Ni34  1  0.00093295  0.66745239  0.66730795  1
  Ni  Ni35  1  0.16715010  0.83293219  0.83395862  1
  Ni  Ni36  1  0.50135981  0.16794105  0.50048005  1
  Ni  Ni37  1  0.33417856  1.00062067  0.66708660  1
  Ni  Ni38  1  0.50186704  0.16764913  0.83395862  1
  Ni  Ni39  1  0.49976562  0.50066321  0.50107431  1
  Ni  Ni40  1  0.33414993  0.33412880  0.66747725  1
  Ni  Ni41  1  0.50030834  0.50037650  0.83407505  1
  Ni  Ni42  1  0.50120660  0.83359262  0.50106273  1
  Ni  Ni43  1  0.33392113  0.66741904  0.66739744  1
  Ni  Ni44  1  0.50061427  0.83418496  0.83373271  1
  Ni  Ni45  1  0.83397623  0.16668540  0.50046829  1
  Ni  Ni46  1  0.66738019  0.00087810  0.66739744  1
  Ni  Ni47  1  0.83332936  0.16732567  0.83432002  1
  Fe  Fe48  1  0.83374708  0.50105214  0.50083678  1
  Ni  Ni49  1  0.66734684  0.33386627  0.66730795  1
  Ni  Ni50  1  0.83442010  0.50037913  0.83336850  1
  Ni  Ni51  1  0.83413602  0.83503361  0.50107431  1
  Ni  Ni52  1  0.66730738  0.66749184  0.66770898  1
  Ni  Ni53  1  0.83442273  0.83449089  0.83407505  1
" 