5502,Ni95Fe3Cr1_18,-239.06321536555, 178.06638325881,Ni95Fe3Cr1,"# generated using pymatgen
 data_Cr2FeNi51
_symmetry_space_group_name_H-M   'P 1'
_cell_length_a   7.46128403
_cell_length_b   7.46128403
_cell_length_c   10.55184907
_cell_angle_alpha   90.00000000
_cell_angle_beta   90.00000000
_cell_angle_gamma   90.00000000
_symmetry_Int_Tables_number   1
_chemical_formula_structural   Cr2FeNi51
_chemical_formula_sum   'Cr2 Fe1 Ni51'
_cell_volume   587.42945134
_cell_formula_units_Z   1
loop_
 _symmetry_equiv_pos_site_id
 _symmetry_equiv_pos_as_xyz
  1  'x, y, z'
loop_
 _atom_site_type_symbol
 _atom_site_label
 _atom_site_symmetry_multiplicity
 _atom_site_fract_x
 _atom_site_fract_y
 _atom_site_fract_z
 _atom_site_occupancy
  Ni  Ni0  1  0.99858830  0.00052377  0.00045080  1
  Ni  Ni1  1  0.16590487  0.16797701  0.16795091  1
  Ni  Ni2  1  0.00050872  1.00027657  0.33344898  1
  Ni  Ni3  1  1.00006156  0.33384457  1.00020723  1
  Ni  Ni4  1  0.16688810  0.50012980  0.16696693  1
  Ni  Ni5  1  1.00032500  0.33413048  0.33369685  1
  Ni  Ni6  1  1.00032012  0.66679262  1.00020791  1
  Ni  Ni7  1  0.16556157  0.83304732  0.16832138  1
  Ni  Ni8  1  1.00023845  0.66673833  0.33366802  1
  Cr  Cr9  1  0.33380441  1.00026671  1.00020577  1
  Ni  Ni10  1  0.50137037  0.16813747  0.16771818  1
  Ni  Ni11  1  0.33387333  1.00037401  0.33387909  1
  Ni  Ni12  1  0.33263900  0.33443441  0.00132942  1
  Ni  Ni13  1  0.50056907  0.50012821  0.16741379  1
  Ni  Ni14  1  0.33370267  0.33370272  0.33343517  1
  Ni  Ni15  1  0.33262858  0.66646900  0.00134176  1
  Ni  Ni16  1  0.50171329  0.83289582  0.16809519  1
  Ni  Ni17  1  0.33370449  0.66707895  0.33376204  1
  Ni  Ni18  1  0.66875897  0.00052527  1.00021104  1
  Ni  Ni19  1  0.83387171  0.16682103  0.16757933  1
  Ni  Ni20  1  0.66678202  1.00028516  0.33345527  1
  Ni  Ni21  1  0.66844482  0.33270023  0.00131908  1
  Ni  Ni22  1  0.83370540  0.50045103  0.16686188  1
  Ni  Ni23  1  0.66713936  0.33395206  0.33370703  1
  Ni  Ni24  1  0.66819457  0.66794627  0.00132725  1
  Ni  Ni25  1  0.83387427  0.83389071  0.16685796  1
  Ni  Ni26  1  0.66721714  0.66690859  0.33366924  1
  Ni  Ni27  1  0.16771874  0.16690669  0.50036162  1
  Ni  Ni28  1  0.00049609  1.00029402  0.66724714  1
  Ni  Ni29  1  0.16588960  0.16793688  0.83285572  1
  Ni  Ni30  1  0.16666006  0.49983021  0.50059620  1
  Ni  Ni31  1  1.00031786  0.33404411  0.66723988  1
  Ni  Ni32  1  0.16520914  0.50012410  0.83358339  1
  Ni  Ni33  1  0.16632353  0.83441695  0.50036729  1
  Ni  Ni34  1  1.00023878  0.66682351  0.66727765  1
  Ni  Ni35  1  0.16553295  0.83309832  0.83247629  1
  Ni  Ni36  1  0.49959773  0.16708094  0.50060055  1
  Ni  Ni37  1  0.33378066  1.00037656  0.66707785  1
  Ni  Ni38  1  0.50136335  0.16647062  0.83285339  1
  Ni  Ni39  1  0.50078445  0.49983328  0.50015278  1
  Ni  Ni40  1  0.33268729  0.33266474  0.66642106  1
  Cr  Cr41  1  0.50049230  0.50020391  0.83365998  1
  Ni  Ni42  1  0.50095843  0.83425293  0.50059554  1
  Ni  Ni43  1  0.33264796  0.66813953  0.66607034  1
  Ni  Ni44  1  0.50172171  0.83459800  0.83246849  1
  Fe  Fe45  1  0.83393801  0.16668940  0.50025348  1
  Ni  Ni46  1  0.66686417  1.00029448  0.66749246  1
  Ni  Ni47  1  0.83390620  0.16679459  0.83321830  1
  Ni  Ni48  1  0.83370861  0.50118990  0.50059895  1
  Ni  Ni49  1  0.66822031  0.33286649  0.66610777  1
  Ni  Ni50  1  0.83536327  0.50045834  0.83370120  1
  Ni  Ni51  1  0.83388098  0.83319201  0.50036277  1
  Ni  Ni52  1  0.66825841  0.66793582  0.66618581  1
  Ni  Ni53  1  0.83390576  0.83391209  0.83394311  1
" 