2557,Ni95Fe3Cr1_2,-239.004787803729, 177.335325806109,Ni95Fe3Cr1,"# generated using pymatgen
 data_Cr2FeNi51
_symmetry_space_group_name_H-M   'P 1'
_cell_length_a   7.46154772
_cell_length_b   7.46154772
_cell_length_c   10.55222198
_cell_angle_alpha   90.00000000
_cell_angle_beta   90.00000000
_cell_angle_gamma   90.00000000
_symmetry_Int_Tables_number   1
_chemical_formula_structural   Cr2FeNi51
_chemical_formula_sum   'Cr2 Fe1 Ni51'
_cell_volume   587.49173319
_cell_formula_units_Z   1
loop_
 _symmetry_equiv_pos_site_id
 _symmetry_equiv_pos_as_xyz
  1  'x, y, z'
loop_
 _atom_site_type_symbol
 _atom_site_label
 _atom_site_symmetry_multiplicity
 _atom_site_fract_x
 _atom_site_fract_y
 _atom_site_fract_z
 _atom_site_occupancy
  Ni  Ni0  1  0.99936046  0.99942063  0.99934253  1
  Cr  Cr1  1  0.16736127  0.16632952  0.16717895  1
  Ni  Ni2  1  0.99904824  0.99919537  0.33461954  1
  Ni  Ni3  1  0.00039028  0.33376379  0.00044933  1
  Ni  Ni4  1  0.16677791  0.50213424  0.16653840  1
  Ni  Ni5  1  0.99947293  0.33471422  0.33459671  1
  Ni  Ni6  1  0.00154561  0.66795059  0.00146302  1
  Ni  Ni7  1  0.16725525  0.83223581  0.16710082  1
  Ni  Ni8  1  1.00033095  0.66718825  0.33353078  1
  Ni  Ni9  1  0.33468223  0.99939010  0.99963616  1
  Ni  Ni10  1  0.50211013  0.16663079  0.16676339  1
  Ni  Ni11  1  0.33478554  0.99940144  0.33465606  1
  Ni  Ni12  1  0.33472204  0.33476416  0.99909120  1
  Ni  Ni13  1  0.50080616  0.50078954  0.16653853  1
  Ni  Ni14  1  0.33476484  0.33491119  0.33463659  1
  Ni  Ni15  1  0.33364319  0.66696568  0.00043105  1
  Ni  Ni16  1  0.50032368  0.83368045  0.16709914  1
  Ni  Ni17  1  0.33362593  0.66678561  0.33352901  1
  Ni  Ni18  1  0.66704110  0.00051467  0.00038083  1
  Ni  Ni19  1  0.83221387  0.16713103  0.16689187  1
  Ni  Ni20  1  0.66730094  1.00031694  0.33352831  1
  Ni  Ni21  1  0.66601684  0.33274311  0.00145959  1
  Ni  Ni22  1  0.83352375  0.50049884  0.16728645  1
  Ni  Ni23  1  0.66689764  0.33361259  0.33353138  1
  Ni  Ni24  1  0.66590735  0.66794905  0.00125822  1
  Ni  Ni25  1  0.83352670  0.83351470  0.16619604  1
  Ni  Ni26  1  0.66714818  0.66717763  0.33376139  1
  Ni  Ni27  1  0.16694451  0.16663717  0.50085923  1
  Ni  Ni28  1  1.00034441  0.00042564  0.66719117  1
  Ni  Ni29  1  0.16670392  0.16635036  0.83347827  1
  Ni  Ni30  1  0.16677955  0.50060066  0.50066697  1
  Ni  Ni31  1  0.00137354  0.33279689  0.66608954  1
  Ni  Ni32  1  0.16798581  0.50091908  0.83389775  1
  Ni  Ni33  1  0.16724410  0.83386821  0.50010384  1
  Ni  Ni34  1  0.00167990  0.66796874  0.66605029  1
  Ni  Ni35  1  0.16797660  0.83390129  0.83390599  1
  Ni  Ni36  1  0.50044645  0.16664065  0.50043612  1
  Ni  Ni37  1  0.33371811  0.00037215  0.66690059  1
  Ni  Ni38  1  0.50069556  0.16635062  0.83390137  1
  Ni  Ni39  1  0.50077684  0.50075430  0.50088680  1
  Ni  Ni40  1  0.33372566  0.33378864  0.66745035  1
  Ni  Ni41  1  0.49943940  0.50107756  0.83368128  1
  Ni  Ni42  1  0.50030610  0.83370009  0.50033006  1
  Ni  Ni43  1  0.33356663  0.66695492  0.66714493  1
  Ni  Ni44  1  0.49954757  0.83372788  0.83367720  1
  Ni  Ni45  1  0.83371478  0.16712812  0.50031951  1
  Ni  Ni46  1  0.66703806  0.00059411  0.66718494  1
  Ni  Ni47  1  0.83371247  0.16619399  0.83390267  1
  Ni  Ni48  1  0.83355087  0.50047368  0.50015022  1
  Ni  Ni49  1  0.66598838  0.33260671  0.66605899  1
  Cr  Cr50  1  0.83318567  0.49998817  0.83332138  1
  Ni  Ni51  1  0.83355514  0.83353722  0.50123412  1
  Ni  Ni52  1  0.66583412  0.66798989  0.66601328  1
  Fe  Fe53  1  0.83348447  0.83484496  0.83356949  1
" 