4694,Ni95Fe2Cr2_4,-239.043839861198, 177.82221555561,Ni95Fe2Cr2,"# generated using pymatgen
 data_Cr2FeNi51
_symmetry_space_group_name_H-M   'P 1'
_cell_length_a   7.46117599
_cell_length_b   7.46117599
_cell_length_c   10.55169628
_cell_angle_alpha   90.00000000
_cell_angle_beta   90.00000000
_cell_angle_gamma   90.00000000
_symmetry_Int_Tables_number   1
_chemical_formula_structural   Cr2FeNi51
_chemical_formula_sum   'Cr2 Fe1 Ni51'
_cell_volume   587.40393349
_cell_formula_units_Z   1
loop_
 _symmetry_equiv_pos_site_id
 _symmetry_equiv_pos_as_xyz
  1  'x, y, z'
loop_
 _atom_site_type_symbol
 _atom_site_label
 _atom_site_symmetry_multiplicity
 _atom_site_fract_x
 _atom_site_fract_y
 _atom_site_fract_z
 _atom_site_occupancy
  Ni  Ni0  1  0.00050278  0.00055826  1.00014873  1
  Ni  Ni1  1  0.16681848  0.16715009  0.16708330  1
  Ni  Ni2  1  0.99976218  0.00054507  0.33395611  1
  Ni  Ni3  1  0.00081360  0.33330812  0.00048958  1
  Ni  Ni4  1  0.16706433  0.50043493  0.16682142  1
  Ni  Ni5  1  0.00108329  0.33304049  0.33394575  1
  Ni  Ni6  1  0.00222523  0.66730791  0.00092291  1
  Ni  Ni7  1  0.16699121  0.83359306  0.16686241  1
  Ni  Ni8  1  0.00092162  0.66759355  0.33329709  1
  Ni  Ni9  1  0.33370369  0.00072613  0.00106621  1
  Ni  Ni10  1  0.50055890  0.16715738  0.16684648  1
  Fe  Fe11  1  0.33372681  0.00081987  0.33372681  1
  Ni  Ni12  1  0.33370650  0.33345772  1.00037453  1
  Ni  Ni13  1  0.49938503  0.49954287  0.16787350  1
  Ni  Ni14  1  0.33372681  0.33424002  0.33372681  1
  Ni  Ni15  1  0.33213598  0.66699514  1.00013652  1
  Ni  Ni16  1  0.49942688  0.83454024  0.16794480  1
  Ni  Ni17  1  0.33372681  0.66630903  0.33372681  1
  Ni  Ni18  1  0.66697484  0.00210912  1.00037106  1
  Ni  Ni19  1  0.83381797  0.16706729  0.16682143  1
  Ni  Ni20  1  0.66769144  0.00054507  0.33349751  1
  Ni  Ni21  1  0.66666390  0.33173428  0.00070930  1
  Ni  Ni22  1  0.83474555  0.49934267  0.16821235  1
  Ni  Ni23  1  0.66637034  0.33304049  0.33350787  1
  Cr  Cr24  1  0.66686241  0.66724252  0.00040132  1
  Ni  Ni25  1  0.83470519  0.83474520  0.16786818  1
  Ni  Ni26  1  0.66653201  0.66759355  0.33415653  1
  Ni  Ni27  1  0.16689472  0.16715738  0.50060714  1
  Ni  Ni28  1  0.00047878  0.00210912  0.66708256  1
  Ni  Ni29  1  0.16712234  0.16692570  0.83349521  1
  Ni  Ni30  1  0.16806859  0.49954287  0.49958012  1
  Ni  Ni31  1  0.00078972  0.33173428  0.66674432  1
  Ni  Ni32  1  0.16799972  0.49942575  0.83480363  1
  Ni  Ni33  1  0.16802675  0.83454024  0.49950883  1
  Cr  Cr34  1  0.00059122  0.66724252  0.66705230  1
  Ni  Ni35  1  0.16824356  0.83481741  0.83479625  1
  Ni  Ni36  1  0.50063515  0.16715009  0.50037032  1
  Ni  Ni37  1  0.33374993  0.00072613  0.66638742  1
  Ni  Ni38  1  0.50033128  0.16692570  0.83395841  1
  Ni  Ni39  1  0.50038930  0.50043493  0.50063220  1
  Ni  Ni40  1  0.33374713  0.33345772  0.66707909  1
  Ni  Ni41  1  0.49945390  0.49942575  0.83265000  1
  Ni  Ni42  1  0.50046241  0.83359306  0.50059121  1
  Ni  Ni43  1  0.33531765  0.66699514  0.66731710  1
  Ni  Ni44  1  0.49921006  0.83481741  0.83265737  1
  Ni  Ni45  1  0.83363565  0.16706729  0.50063219  1
  Ni  Ni46  1  0.66695084  0.00055826  0.66730489  1
  Ni  Ni47  1  0.83372681  0.16717647  0.83372681  1
  Ni  Ni48  1  0.83270807  0.49934267  0.49924127  1
  Ni  Ni49  1  0.66664002  0.33330812  0.66696404  1
  Ni  Ni50  1  0.83372681  0.49829831  0.83372681  1
  Ni  Ni51  1  0.83274843  0.83474520  0.49958545  1
  Ni  Ni52  1  0.66522839  0.66730791  0.66653071  1
  Ni  Ni53  1  0.83372681  0.83568233  0.83372681  1
" 