4921,Ni95Fe3Cr0_8,-240.156459212966, 183.322977662384,Ni95Fe3Cr0,"# generated using pymatgen
 data_CrFe2Ni51
_symmetry_space_group_name_H-M   'P 1'
_cell_length_a   7.45593680
_cell_length_b   7.45593680
_cell_length_c   10.54428694
_cell_angle_alpha   90.00000000
_cell_angle_beta   90.00000000
_cell_angle_gamma   90.00000000
_symmetry_Int_Tables_number   1
_chemical_formula_structural   CrFe2Ni51
_chemical_formula_sum   'Cr1 Fe2 Ni51'
_cell_volume   586.16738676
_cell_formula_units_Z   1
loop_
 _symmetry_equiv_pos_site_id
 _symmetry_equiv_pos_as_xyz
  1  'x, y, z'
loop_
 _atom_site_type_symbol
 _atom_site_label
 _atom_site_symmetry_multiplicity
 _atom_site_fract_x
 _atom_site_fract_y
 _atom_site_fract_z
 _atom_site_occupancy
  Ni  Ni0  1  0.99991756  0.00081708  0.99991577  1
  Ni  Ni1  1  0.16721724  0.16734483  0.16721450  1
  Ni  Ni2  1  1.00065868  0.00090389  0.33480512  1
  Ni  Ni3  1  0.00128869  0.33355412  1.00063483  1
  Ni  Ni4  1  0.16734690  0.50087909  0.16753162  1
  Ni  Ni5  1  0.00099787  0.33373447  0.33372643  1
  Ni  Ni6  1  0.00126758  0.66785667  0.00086490  1
  Ni  Ni7  1  0.16704254  0.83397958  0.16745449  1
  Ni  Ni8  1  0.00100049  0.66760088  0.33372662  1
  Fe  Fe9  1  0.33306273  0.99978733  0.00157282  1
  Ni  Ni10  1  0.50080924  0.16760450  0.16764834  1
  Ni  Ni11  1  0.33412285  1.00072801  0.33339691  1
  Ni  Ni12  1  0.33274915  0.33575134  0.00138394  1
  Ni  Ni13  1  0.50076637  0.50070943  0.16728022  1
  Ni  Ni14  1  0.33381276  0.33392126  0.33443629  1
  Ni  Ni15  1  0.33390142  0.66685604  1.00026682  1
  Ni  Ni16  1  0.50080313  0.83389919  0.16720730  1
  Ni  Ni17  1  0.33398832  0.66756838  0.33445025  1
  Ni  Ni18  1  0.66922990  0.99968660  0.00171557  1
  Ni  Ni19  1  0.83417896  0.16729863  0.16728159  1
  Ni  Ni20  1  0.66743688  1.00073001  0.33408842  1
  Ni  Ni21  1  0.66817915  0.33434619  0.00138924  1
  Ni  Ni22  1  0.83412051  0.50091535  0.16718494  1
  Ni  Ni23  1  0.66742570  0.33359342  0.33407850  1
  Ni  Ni24  1  0.66705144  0.66820254  1.00026742  1
  Ni  Ni25  1  0.83434525  0.83402234  0.16752865  1
  Ni  Ni26  1  0.66724754  0.66791244  0.33407482  1
  Ni  Ni27  1  0.16763457  0.16735790  0.50092042  1
  Fe  Fe28  1  0.00079307  1.00054257  0.66735072  1
  Ni  Ni29  1  0.16576966  0.16755999  0.83400698  1
  Ni  Ni30  1  0.16713328  0.50091972  0.50063951  1
  Ni  Ni31  1  0.00099306  0.33448129  0.66789018  1
  Ni  Ni32  1  0.16724372  0.50088325  0.83408542  1
  Ni  Ni33  1  0.16749647  0.83394212  0.50066105  1
  Ni  Ni34  1  0.00099414  0.66681808  0.66765205  1
  Ni  Ni35  1  0.16721268  0.83372903  0.83406387  1
  Ni  Ni36  1  0.50061002  0.16729094  0.50043802  1
  Ni  Ni37  1  0.33385500  0.99973475  0.66723002  1
  Cr  Cr38  1  0.50092044  0.16790586  0.83434496  1
  Ni  Ni39  1  0.50087310  0.50073594  0.50121556  1
  Ni  Ni40  1  0.33249250  0.33461584  0.66649414  1
  Ni  Ni41  1  0.50074827  0.50230915  0.83375290  1
  Ni  Ni42  1  0.50060953  0.83419992  0.50086815  1
  Ni  Ni43  1  0.33360397  0.66787576  0.66753296  1
  Ni  Ni44  1  0.50084295  0.83244576  0.83410004  1
  Ni  Ni45  1  0.83399874  0.16761273  0.50093449  1
  Ni  Ni46  1  0.66771719  0.99972288  0.66651597  1
  Ni  Ni47  1  0.83556386  0.16744598  0.83398725  1
  Ni  Ni48  1  0.83423100  0.50092131  0.50063826  1
  Ni  Ni49  1  0.66876162  0.33434996  0.66679101  1
  Ni  Ni50  1  0.83423503  0.50092136  0.83441665  1
  Ni  Ni51  1  0.83414025  0.83368661  0.50067165  1
  Ni  Ni52  1  0.66763463  0.66820402  0.66788799  1
  Ni  Ni53  1  0.83415775  0.83381901  0.83401875  1
" 