8509,Ni95Fe3Cr0_3,-240.208137643015, 183.338773766005,Ni95Fe3Cr0,"# generated using pymatgen
 data_CrFe2Ni51
_symmetry_space_group_name_H-M   'P 1'
_cell_length_a   7.45765470
_cell_length_b   7.45765470
_cell_length_c   10.54671643
_cell_angle_alpha   90.00000000
_cell_angle_beta   90.00000000
_cell_angle_gamma   90.00000000
_symmetry_Int_Tables_number   1
_chemical_formula_structural   CrFe2Ni51
_chemical_formula_sum   'Cr1 Fe2 Ni51'
_cell_volume   586.57265308
_cell_formula_units_Z   1
loop_
 _symmetry_equiv_pos_site_id
 _symmetry_equiv_pos_as_xyz
  1  'x, y, z'
loop_
 _atom_site_type_symbol
 _atom_site_label
 _atom_site_symmetry_multiplicity
 _atom_site_fract_x
 _atom_site_fract_y
 _atom_site_fract_z
 _atom_site_occupancy
  Ni  Ni0  1  0.00154414  0.99988973  0.99969348  1
  Ni  Ni1  1  0.16792778  0.16685064  0.16729642  1
  Ni  Ni2  1  0.00154414  0.99988973  0.33489936  1
  Ni  Ni3  1  0.00146565  0.33479898  0.99976509  1
  Ni  Ni4  1  0.16742941  0.50076274  0.16729642  1
  Ni  Ni5  1  0.00146565  0.33479898  0.33482774  1
  Ni  Ni6  1  1.00049863  0.66719201  0.00078149  1
  Ni  Ni7  1  0.16852549  0.83427304  0.16729642  1
  Ni  Ni8  1  1.00049863  0.66719201  0.33381134  1
  Ni  Ni9  1  0.33386385  0.00078812  0.00074701  1
  Fe  Fe10  1  0.49841026  0.16778099  0.16729642  1
  Ni  Ni11  1  0.33386385  0.00078812  0.33384583  1
  Ni  Ni12  1  0.33385868  0.33383197  0.00078149  1
  Ni  Ni13  1  0.50093971  0.50185883  0.16729642  1
  Ni  Ni14  1  0.33385868  0.33383197  0.33381134  1
  Ni  Ni15  1  0.33394035  0.66727368  1.00057504  1
  Ni  Ni16  1  0.49986444  0.83319778  0.16729642  1
  Ni  Ni17  1  0.33394035  0.66727368  0.33401779  1
  Ni  Ni18  1  0.66647779  0.99981113  0.99963182  1
  Cr  Cr19  1  0.83462259  0.16795592  0.16729642  1
  Ni  Ni20  1  0.66647779  0.99981113  0.33496102  1
  Ni  Ni21  1  0.66655640  0.33487747  0.99969348  1
  Ni  Ni22  1  0.83351730  0.50126111  0.16729642  1
  Ni  Ni23  1  0.66655640  0.33487747  0.33489936  1
  Ni  Ni24  1  0.66745479  0.66719719  0.00074701  1
  Fe  Fe25  1  0.83444766  0.83174359  0.16729642  1
  Ni  Ni26  1  0.66745479  0.66719719  0.33384583  1
  Ni  Ni27  1  0.16681670  0.16707744  0.50019163  1
  Ni  Ni28  1  1.00062263  1.00061834  0.66729642  1
  Ni  Ni29  1  0.16681670  0.16707744  0.83440120  1
  Ni  Ni30  1  0.16724891  0.50058224  0.50013280  1
  Ni  Ni31  1  0.00063417  0.33396751  0.66729642  1
  Ni  Ni32  1  0.16724891  0.50058224  0.83446003  1
  Ni  Ni33  1  0.16749517  0.83422994  0.50037838  1
  Ni  Ni34  1  1.00061616  0.66730342  0.66729642  1
  Ni  Ni35  1  0.16749517  0.83422994  0.83421445  1
  Ni  Ni36  1  0.50108121  0.16707747  0.49971662  1
  Ni  Ni37  1  0.33397010  0.00064788  0.66729642  1
  Ni  Ni38  1  0.50108121  0.16707747  0.83487621  1
  Ni  Ni39  1  0.50089661  0.50082850  0.50037838  1
  Ni  Ni40  1  0.33397009  0.33394949  0.66729642  1
  Ni  Ni41  1  0.50089661  0.50082850  0.83421445  1
  Ni  Ni42  1  0.50065041  0.83398374  0.50062411  1
  Ni  Ni43  1  0.33395853  0.66729187  0.66729642  1
  Ni  Ni44  1  0.50065041  0.83398374  0.83396872  1
  Ni  Ni45  1  0.83398952  0.16732286  0.50081075  1
  Ni  Ni46  1  0.66729653  0.00062987  0.66729642  1
  Ni  Ni47  1  0.83398952  0.16732286  0.83378208  1
  Ni  Ni48  1  0.83374411  0.50015003  0.50019163  1
  Ni  Ni49  1  0.66728500  0.33395597  0.66729642  1
  Ni  Ni50  1  0.83374411  0.50015003  0.83440120  1
  Ni  Ni51  1  0.83374413  0.83441454  0.49971662  1
  Ni  Ni52  1  0.66731455  0.66730343  0.66729642  1
  Ni  Ni53  1  0.83374413  0.83441454  0.83487621  1
" 