7594,Ni95Fe3Cr1_12,-239.066810554937, 178.256457483923,Ni95Fe3Cr1,"# generated using pymatgen
 data_Cr2FeNi51
_symmetry_space_group_name_H-M   'P 1'
_cell_length_a   7.46135955
_cell_length_b   7.46135955
_cell_length_c   10.55195587
_cell_angle_alpha   90.00000000
_cell_angle_beta   90.00000000
_cell_angle_gamma   90.00000000
_symmetry_Int_Tables_number   1
_chemical_formula_structural   Cr2FeNi51
_chemical_formula_sum   'Cr2 Fe1 Ni51'
_cell_volume   587.44728741
_cell_formula_units_Z   1
loop_
 _symmetry_equiv_pos_site_id
 _symmetry_equiv_pos_as_xyz
  1  'x, y, z'
loop_
 _atom_site_type_symbol
 _atom_site_label
 _atom_site_symmetry_multiplicity
 _atom_site_fract_x
 _atom_site_fract_y
 _atom_site_fract_z
 _atom_site_occupancy
  Ni  Ni0  1  0.99967913  0.99960358  1.00022882  1
  Ni  Ni1  1  0.16687490  0.16718845  0.16681740  1
  Ni  Ni2  1  0.99997900  0.99982649  0.33339298  1
  Ni  Ni3  1  0.99986155  0.33424777  1.00023513  1
  Ni  Ni4  1  0.16690793  0.50022187  0.16715082  1
  Ni  Ni5  1  1.00013274  0.33396818  0.33361010  1
  Ni  Ni6  1  0.00106172  0.66728295  1.00023293  1
  Ni  Ni7  1  0.16723258  0.83373136  0.16691525  1
  Ni  Ni8  1  1.00031463  0.66735255  0.33375639  1
  Ni  Ni9  1  0.33323697  0.00087265  0.00109956  1
  Ni  Ni10  1  0.50037949  0.16699580  0.16691574  1
  Ni  Ni11  1  0.33394884  1.00015365  0.33361728  1
  Ni  Ni12  1  0.33433037  0.33426485  0.00042863  1
  Ni  Ni13  1  0.50031856  0.50032825  0.16686637  1
  Ni  Ni14  1  0.33411951  0.33396698  0.33317552  1
  Ni  Ni15  1  0.33181822  0.66597971  0.00109147  1
  Ni  Ni16  1  0.50013640  0.83380830  0.16732203  1
  Ni  Ni17  1  0.33362928  0.66701934  0.33397015  1
  Ni  Ni18  1  0.66826440  0.00217200  0.00132953  1
  Ni  Ni19  1  0.83388871  0.16731853  0.16714984  1
  Ni  Ni20  1  0.66721881  1.00031515  0.33374110  1
  Ni  Ni21  1  0.66695175  0.33291857  0.99998704  1
  Ni  Ni22  1  0.83395364  0.49999088  0.16710092  1
  Ni  Ni23  1  0.66688366  0.33363018  0.33398488  1
  Fe  Fe24  1  0.66821725  0.66628329  0.00137026  1
  Ni  Ni25  1  0.83380105  0.83380939  0.16688519  1
  Ni  Ni26  1  0.66721839  0.66718193  0.33304507  1
  Ni  Ni27  1  0.16581038  0.16612013  0.49941053  1
  Ni  Ni28  1  0.99994214  0.99986464  0.66753032  1
  Ni  Ni29  1  0.16580989  0.16617732  0.83488612  1
  Ni  Ni30  1  0.16582017  0.50117957  0.49942153  1
  Ni  Ni31  1  0.99846915  0.33396904  0.66729286  1
  Ni  Ni32  1  0.16588597  0.50122241  0.83454433  1
  Ni  Ni33  1  0.16714681  0.83383341  0.50077771  1
  Ni  Ni34  1  1.00026843  0.66730673  0.66718342  1
  Ni  Ni35  1  0.16556620  0.83371040  0.83348285  1
  Ni  Ni36  1  0.50132261  0.16596332  0.49965910  1
  Ni  Ni37  1  0.33288904  0.99954486  0.66640746  1
  Ni  Ni38  1  0.50141561  0.16759901  0.83455471  1
  Ni  Ni39  1  0.50156874  0.50158689  0.49966270  1
  Cr  Cr40  1  0.33397682  0.33389658  0.66745160  1
  Ni  Ni41  1  0.50135961  0.49972941  0.83461291  1
  Ni  Ni42  1  0.50044234  0.83357990  0.50033558  1
  Ni  Ni43  1  0.33262302  0.66761364  0.66611351  1
  Cr  Cr44  1  0.50013391  0.83388860  0.83342095  1
  Ni  Ni45  1  0.83398519  0.16728123  0.50053184  1
  Ni  Ni46  1  0.66829485  0.00128621  0.66611692  1
  Ni  Ni47  1  0.83390364  0.16726024  0.83347154  1
  Ni  Ni48  1  0.83373064  0.50028159  0.50053173  1
  Ni  Ni49  1  0.66857868  0.33364096  0.66717915  1
  Ni  Ni50  1  0.83398657  0.50003520  0.83350614  1
  Ni  Ni51  1  0.83356348  0.83358085  0.50053136  1
  Ni  Ni52  1  0.66828416  0.66617773  0.66682264  1
  Ni  Ni53  1  0.83544552  0.83382057  0.83372317  1
" 