7650,Ni95Fe3Cr1_15,-239.009394575807, 177.397170485892,Ni95Fe3Cr1,"# generated using pymatgen
 data_Cr2FeNi51
_symmetry_space_group_name_H-M   'P 1'
_cell_length_a   7.46174720
_cell_length_b   7.46174720
_cell_length_c   10.55250409
_cell_angle_alpha   90.00000000
_cell_angle_beta   90.00000000
_cell_angle_gamma   90.00000000
_symmetry_Int_Tables_number   1
_chemical_formula_structural   Cr2FeNi51
_chemical_formula_sum   'Cr2 Fe1 Ni51'
_cell_volume   587.53885315
_cell_formula_units_Z   1
loop_
 _symmetry_equiv_pos_site_id
 _symmetry_equiv_pos_as_xyz
  1  'x, y, z'
loop_
 _atom_site_type_symbol
 _atom_site_label
 _atom_site_symmetry_multiplicity
 _atom_site_fract_x
 _atom_site_fract_y
 _atom_site_fract_z
 _atom_site_occupancy
  Ni  Ni0  1  0.00042591  0.00074776  0.00087977  1
  Ni  Ni1  1  0.16703872  0.16682460  0.16712925  1
  Ni  Ni2  1  0.00242389  0.00103149  0.33366604  1
  Ni  Ni3  1  1.00028944  0.33368763  1.00031579  1
  Ni  Ni4  1  0.16689273  0.50045460  0.16689774  1
  Ni  Ni5  1  0.99956498  0.33370830  0.33367202  1
  Ni  Ni6  1  0.00077022  0.66663197  0.00041686  1
  Ni  Ni7  1  0.16698596  0.83378604  0.16712461  1
  Ni  Ni8  1  0.00107554  0.66631585  0.33389081  1
  Ni  Ni9  1  0.33370390  1.00027562  1.00031601  1
  Ni  Ni10  1  0.49928307  0.16794726  0.16606853  1
  Ni  Ni11  1  0.33221408  0.99952723  0.33389251  1
  Ni  Ni12  1  0.33353513  0.33385983  0.00077559  1
  Ni  Ni13  1  0.50054135  0.50042592  0.16715191  1
  Fe  Fe14  1  0.33330783  0.33389953  0.33360051  1
  Ni  Ni15  1  0.33353810  0.66694082  0.00050384  1
  Ni  Ni16  1  0.49935030  0.83271904  0.16606482  1
  Ni  Ni17  1  0.33351585  0.66760841  0.33345815  1
  Ni  Ni18  1  0.66693286  0.00074748  0.00045471  1
  Ni  Ni19  1  0.83473591  0.16809922  0.16600599  1
  Cr  Cr20  1  0.66724002  0.00117915  0.33330319  1
  Ni  Ni21  1  0.66723548  0.33351769  0.00054624  1
  Ni  Ni22  1  0.83361076  0.50050376  0.16712614  1
  Ni  Ni23  1  0.66792147  0.33514491  0.33367044  1
  Ni  Ni24  1  0.66676031  0.66679570  0.00064648  1
  Ni  Ni25  1  0.83476881  0.83246145  0.16631041  1
  Ni  Ni26  1  0.66649311  0.66493641  0.33388767  1
  Ni  Ni27  1  0.16701874  0.16686919  0.50037371  1
  Ni  Ni28  1  0.00040710  0.00077506  0.66652313  1
  Ni  Ni29  1  0.16723075  0.16700434  0.83351039  1
  Ni  Ni30  1  0.16597658  0.49941904  0.49955886  1
  Ni  Ni31  1  1.00026079  0.33366375  0.66708843  1
  Ni  Ni32  1  0.16605485  0.49913238  0.83465289  1
  Ni  Ni33  1  0.16598523  0.83472629  0.49939919  1
  Ni  Ni34  1  0.99909929  0.66662596  0.66674919  1
  Ni  Ni35  1  0.16581808  0.83492285  0.83464685  1
  Ni  Ni36  1  0.49936233  0.16795684  0.50137636  1
  Ni  Ni37  1  0.33369993  0.00184440  0.66687968  1
  Ni  Ni38  1  0.50013294  0.16716454  0.83351274  1
  Ni  Ni39  1  0.50142910  0.49939640  0.49933082  1
  Ni  Ni40  1  0.33353065  0.33224676  0.66640318  1
  Ni  Ni41  1  0.50143981  0.49916148  0.83462362  1
  Ni  Ni42  1  0.50035697  0.83368787  0.50043472  1
  Cr  Cr43  1  0.33316709  0.66688423  0.66774489  1
  Ni  Ni44  1  0.50151657  0.83473327  0.83461635  1
  Ni  Ni45  1  0.83467806  0.16803877  0.50125753  1
  Ni  Ni46  1  0.66695896  0.00077616  0.66695150  1
  Ni  Ni47  1  0.83370320  0.16692150  0.83374804  1
  Ni  Ni48  1  0.83361902  0.50043508  0.50042318  1
  Ni  Ni49  1  0.66727026  0.33349360  0.66686222  1
  Ni  Ni50  1  0.83355224  0.50055089  0.83351254  1
  Ni  Ni51  1  0.83474286  0.83258739  0.50118481  1
  Ni  Ni52  1  0.66829979  0.66679003  0.66652623  1
  Ni  Ni53  1  0.83371239  0.83359359  0.83351222  1
" 