5484,Ni95Fe3Cr1_5,-239.025069478939, 177.354383467368,Ni95Fe3Cr1,"# generated using pymatgen
 data_Cr2FeNi51
_symmetry_space_group_name_H-M   'P 1'
_cell_length_a   7.46110769
_cell_length_b   7.46110769
_cell_length_c   10.55159968
_cell_angle_alpha   90.00000000
_cell_angle_beta   90.00000000
_cell_angle_gamma   90.00000000
_symmetry_Int_Tables_number   1
_chemical_formula_structural   Cr2FeNi51
_chemical_formula_sum   'Cr2 Fe1 Ni51'
_cell_volume   587.38780033
_cell_formula_units_Z   1
loop_
 _symmetry_equiv_pos_site_id
 _symmetry_equiv_pos_as_xyz
  1  'x, y, z'
loop_
 _atom_site_type_symbol
 _atom_site_label
 _atom_site_symmetry_multiplicity
 _atom_site_fract_x
 _atom_site_fract_y
 _atom_site_fract_z
 _atom_site_occupancy
  Ni  Ni0  1  0.00101888  0.00056741  1.00023931  1
  Ni  Ni1  1  0.16726239  0.16705595  0.16714450  1
  Ni  Ni2  1  1.00027024  0.00056115  0.33393170  1
  Ni  Ni3  1  0.99965080  0.33298413  0.00067161  1
  Ni  Ni4  1  0.16706473  0.50039806  0.16676864  1
  Ni  Ni5  1  0.99995582  0.33328915  0.33314234  1
  Ni  Ni6  1  0.99980850  0.66765429  0.99999662  1
  Ni  Ni7  1  0.16686706  0.83374017  0.16714450  1
  Ni  Ni8  1  1.00011434  0.66734845  0.33381798  1
  Ni  Ni9  1  0.33311058  1.00022871  1.00023931  1
  Ni  Ni10  1  0.50012090  0.16734188  0.16710149  1
  Ni  Ni11  1  0.33385921  1.00023497  0.33393170  1
  Ni  Ni12  1  0.33432095  0.33314183  0.99999662  1
  Ni  Ni13  1  0.50040683  0.50020039  0.16714450  1
  Ni  Ni14  1  0.33401512  0.33344767  0.33381798  1
  Ni  Ni15  1  0.33447865  0.66781199  0.00067161  1
  Ni  Ni16  1  0.50031831  0.83365164  0.16710086  1
  Ni  Ni17  1  0.33417363  0.66750697  0.33314234  1
  Fe  Fe18  1  0.66706473  0.00039806  0.00070401  1
  Ni  Ni19  1  0.83381114  0.16714448  0.16710086  1
  Ni  Ni20  1  0.66706473  0.00039806  0.33296914  1
  Ni  Ni21  1  0.66723407  0.33435221  1.00023931  1
  Ni  Ni22  1  0.83372262  0.50059573  0.16714450  1
  Ni  Ni23  1  0.66722782  0.33360357  0.33393170  1
  Ni  Ni24  1  0.66689538  0.66644391  1.00023931  1
  Ni  Ni25  1  0.83400855  0.83345423  0.16710149  1
  Ni  Ni26  1  0.66690164  0.66719255  0.33393170  1
  Ni  Ni27  1  0.16819261  0.16609859  0.49962587  1
  Ni  Ni28  1  1.00031212  0.99908157  0.66701240  1
  Ni  Ni29  1  0.16812532  0.16599911  0.83438782  1
  Ni  Ni30  1  0.16706473  0.50039806  0.49843909  1
  Cr  Cr31  1  1.00026251  0.33359584  0.66731210  1
  Ni  Ni32  1  0.16706473  0.50039806  0.83593936  1
  Ni  Ni33  1  0.16593684  0.83469753  0.49962587  1
  Ni  Ni34  1  0.99847955  0.66898323  0.66738686  1
  Ni  Ni35  1  0.16600413  0.83479701  0.83438782  1
  Ni  Ni36  1  0.50050339  0.16695940  0.50071541  1
  Ni  Ni37  1  0.33381733  0.00171455  0.66701240  1
  Ni  Ni38  1  0.50026946  0.16719332  0.83340080  1
  Ni  Ni39  1  0.50136420  0.49927017  0.49962587  1
  Ni  Ni40  1  0.33564990  0.33181289  0.66738686  1
  Ni  Ni41  1  0.50146367  0.49933746  0.83438782  1
  Ni  Ni42  1  0.50160983  0.83494317  0.49943103  1
  Cr  Cr43  1  0.33386694  0.66720028  0.66731210  1
  Ni  Ni44  1  0.50139586  0.83472919  0.83470047  1
  Ni  Ni45  1  0.83251962  0.16585295  0.49943103  1
  Ni  Ni46  1  0.66706473  0.00039806  0.66775341  1
  Ni  Ni47  1  0.83273359  0.16606692  0.83470047  1
  Ni  Ni48  1  0.83276525  0.50152595  0.49962587  1
  Ni  Ni49  1  0.66574824  0.33364545  0.66701240  1
  Ni  Ni50  1  0.83266578  0.50145866  0.83438782  1
  Ni  Ni51  1  0.83362606  0.83383672  0.50071541  1
  Ni  Ni52  1  0.66838121  0.66715067  0.66701240  1
  Ni  Ni53  1  0.83385999  0.83360280  0.83340080  1
" 