3277,Ni95Fe2Cr2_12,-239.047176856177, 177.955532151204,Ni95Fe2Cr2,"# generated using pymatgen
 data_Cr2FeNi51
_symmetry_space_group_name_H-M   'P 1'
_cell_length_a   7.46118028
_cell_length_b   7.46118028
_cell_length_c   10.55170234
_cell_angle_alpha   90.00000000
_cell_angle_beta   90.00000000
_cell_angle_gamma   90.00000000
_symmetry_Int_Tables_number   1
_chemical_formula_structural   Cr2FeNi51
_chemical_formula_sum   'Cr2 Fe1 Ni51'
_cell_volume   587.40494605
_cell_formula_units_Z   1
loop_
 _symmetry_equiv_pos_site_id
 _symmetry_equiv_pos_as_xyz
  1  'x, y, z'
loop_
 _atom_site_type_symbol
 _atom_site_label
 _atom_site_symmetry_multiplicity
 _atom_site_fract_x
 _atom_site_fract_y
 _atom_site_fract_z
 _atom_site_occupancy
  Ni  Ni0  1  0.00053958  1.00025907  0.99952959  1
  Ni  Ni1  1  0.16694169  0.16699102  0.16723179  1
  Ni  Ni2  1  0.00056404  1.00023579  0.33457241  1
  Ni  Ni3  1  1.00037807  0.33377034  0.00084626  1
  Ni  Ni4  1  0.16718512  0.50033438  0.16723118  1
  Ni  Ni5  1  0.00194844  0.33377706  0.33347621  1
  Ni  Ni6  1  0.00054185  0.66711179  1.00022247  1
  Ni  Ni7  1  0.16678478  0.83385503  0.16700024  1
  Ni  Ni8  1  0.00056367  0.66713041  0.33387613  1
  Ni  Ni9  1  0.33378953  1.00009926  0.00043235  1
  Ni  Ni10  1  0.49935226  0.16628330  0.16614867  1
  Ni  Ni11  1  0.33376599  1.00006917  0.33366293  1
  Ni  Ni12  1  0.33347577  0.33348542  1.00009241  1
  Ni  Ni13  1  0.49934414  0.50129516  0.16613895  1
  Ni  Ni14  1  0.33184098  0.33347979  0.33424323  1
  Ni  Ni15  1  0.33348678  0.66760049  1.00010369  1
  Ni  Ni16  1  0.50046631  0.83361252  0.16723011  1
  Ni  Ni17  1  0.33345183  0.66764017  0.33399955  1
  Ni  Ni18  1  0.66685082  1.00025975  0.00065281  1
  Ni  Ni19  1  0.83486478  0.16589056  0.16616207  1
  Ni  Ni20  1  0.66684629  0.99868199  0.33366521  1
  Ni  Ni21  1  0.66732103  0.33348393  0.99966206  1
  Ni  Ni22  1  0.83462907  0.50144382  0.16615432  1
  Cr  Cr23  1  0.66721964  0.33354594  0.33416050  1
  Ni  Ni24  1  0.66715341  0.66744834  1.00031785  1
  Ni  Ni25  1  0.83392700  0.83385634  0.16723182  1
  Ni  Ni26  1  0.66716113  0.66905776  0.33400561  1
  Ni  Ni27  1  0.16821289  0.16622020  0.49926486  1
  Fe  Fe28  1  0.00058502  0.99888740  0.66717578  1
  Ni  Ni29  1  0.16821149  0.16628812  0.83469811  1
  Ni  Ni30  1  0.16809989  0.50125085  0.49926774  1
  Cr  Cr31  1  0.00041699  0.33459483  0.66685318  1
  Ni  Ni32  1  0.16809312  0.50118116  0.83468884  1
  Ni  Ni33  1  0.16704937  0.83364557  0.50060865  1
  Ni  Ni34  1  0.00054282  0.66808780  0.66708036  1
  Ni  Ni35  1  0.16706868  0.83362869  0.83358807  1
  Ni  Ni36  1  0.49938826  0.16614030  0.50137389  1
  Ni  Ni37  1  0.33455867  1.00005381  0.66708355  1
  Ni  Ni38  1  0.50038056  0.16712372  0.83361901  1
  Ni  Ni39  1  0.49935174  0.50134194  0.50170532  1
  Ni  Ni40  1  0.33478450  0.33316579  0.66684605  1
  Ni  Ni41  1  0.50038214  0.50033687  0.83330979  1
  Ni  Ni42  1  0.50045957  0.83371068  0.50008686  1
  Ni  Ni43  1  0.33323860  0.66789652  0.66707818  1
  Ni  Ni44  1  0.50053872  0.83370832  0.83386212  1
  Ni  Ni45  1  0.83364574  0.16509307  0.50036244  1
  Ni  Ni46  1  0.66611708  1.00022841  0.66685268  1
  Ni  Ni47  1  0.83260436  0.16612259  0.83468433  1
  Ni  Ni48  1  0.83370324  0.50230300  0.50031048  1
  Ni  Ni49  1  0.66604257  0.33316849  0.66728126  1
  Ni  Ni50  1  0.83271380  0.50133925  0.83468355  1
  Ni  Ni51  1  0.83366359  0.83364832  0.50038052  1
  Ni  Ni52  1  0.66740521  0.66773100  0.66685725  1
  Ni  Ni53  1  0.83357967  0.83363698  0.83357897  1
" 