1476,Ni95Fe2Cr2_8,-239.036123622172, 177.628728406372,Ni95Fe2Cr2,"# generated using pymatgen
 data_Cr2FeNi51
_symmetry_space_group_name_H-M   'P 1'
_cell_length_a   7.46181355
_cell_length_b   7.46181355
_cell_length_c   10.55259793
_cell_angle_alpha   90.00000000
_cell_angle_beta   90.00000000
_cell_angle_gamma   90.00000000
_symmetry_Int_Tables_number   1
_chemical_formula_structural   Cr2FeNi51
_chemical_formula_sum   'Cr2 Fe1 Ni51'
_cell_volume   587.55452767
_cell_formula_units_Z   1
loop_
 _symmetry_equiv_pos_site_id
 _symmetry_equiv_pos_as_xyz
  1  'x, y, z'
loop_
 _atom_site_type_symbol
 _atom_site_label
 _atom_site_symmetry_multiplicity
 _atom_site_fract_x
 _atom_site_fract_y
 _atom_site_fract_z
 _atom_site_occupancy
  Ni  Ni0  1  0.00055144  0.00056499  0.00045598  1
  Ni  Ni1  1  0.16685993  0.16718981  0.16700647  1
  Ni  Ni2  1  0.00053654  0.00118532  0.33354142  1
  Ni  Ni3  1  0.00052641  0.33343421  1.00023565  1
  Ni  Ni4  1  0.16687972  0.50016335  0.16686332  1
  Ni  Ni5  1  0.00052294  0.33266339  0.33377612  1
  Ni  Ni6  1  0.00192157  0.66707336  0.00117523  1
  Ni  Ni7  1  0.16540873  0.83364353  0.16690337  1
  Fe  Fe8  1  0.00057845  0.66679914  0.33389817  1
  Ni  Ni9  1  0.33216261  0.00138130  0.99970992  1
  Ni  Ni10  1  0.50040364  0.16870602  0.16712613  1
  Ni  Ni11  1  0.33195911  0.00098838  0.33457618  1
  Ni  Ni12  1  0.33331172  0.33373002  0.00081432  1
  Ni  Ni13  1  0.49933215  0.49778213  0.16785300  1
  Ni  Ni14  1  0.33302065  0.33404021  0.33354947  1
  Ni  Ni15  1  0.33107892  0.66594561  0.99936256  1
  Cr  Cr16  1  0.49919216  0.83518959  0.16764186  1
  Ni  Ni17  1  0.33347180  0.66600912  0.33436519  1
  Ni  Ni18  1  0.66835925  0.00275626  0.99970300  1
  Ni  Ni19  1  0.83380402  0.16721544  0.16678456  1
  Ni  Ni20  1  0.66858776  0.00088491  0.33439635  1
  Ni  Ni21  1  0.66720691  0.33229600  0.00081759  1
  Ni  Ni22  1  0.83487957  0.49913713  0.16792834  1
  Ni  Ni23  1  0.66750532  0.33419347  0.33333026  1
  Cr  Cr24  1  0.66782960  0.66580257  0.99894374  1
  Ni  Ni25  1  0.83629080  0.83468147  0.16797710  1
  Ni  Ni26  1  0.66732142  0.66600919  0.33479361  1
  Ni  Ni27  1  0.16683914  0.16721231  0.50046101  1
  Ni  Ni28  1  0.00053318  0.00043454  0.66701955  1
  Ni  Ni29  1  0.16696668  0.16719821  0.83358392  1
  Ni  Ni30  1  0.16700003  0.50017762  0.50048653  1
  Ni  Ni31  1  0.00053794  0.33343407  0.66701182  1
  Ni  Ni32  1  0.16669186  0.50038043  0.83382486  1
  Ni  Ni33  1  0.16714257  0.83365121  0.50021786  1
  Ni  Ni34  1  0.00035598  0.66718008  0.66655078  1
  Ni  Ni35  1  0.16686022  0.83348316  0.83405237  1
  Ni  Ni36  1  0.50051424  0.16702087  0.49986892  1
  Ni  Ni37  1  0.33324664  1.00030120  0.66668406  1
  Ni  Ni38  1  0.50040885  0.16703957  0.83405429  1
  Ni  Ni39  1  0.50032554  0.50030909  0.50023143  1
  Ni  Ni40  1  0.33342356  0.33374389  0.66668167  1
  Ni  Ni41  1  0.49926180  0.49909901  0.83292374  1
  Ni  Ni42  1  0.50032717  0.83370843  0.50065084  1
  Ni  Ni43  1  0.33372268  0.66699924  0.66725468  1
  Ni  Ni44  1  0.49926320  0.83490318  0.83250557  1
  Ni  Ni45  1  0.83369141  0.16720764  0.50045781  1
  Ni  Ni46  1  0.66727872  1.00012933  0.66692086  1
  Ni  Ni47  1  0.83367002  0.16721139  0.83381954  1
  Ni  Ni48  1  0.83374040  0.50002938  0.50045521  1
  Ni  Ni49  1  0.66709618  0.33392862  0.66693339  1
  Ni  Ni50  1  0.83504122  0.49928030  0.83276471  1
  Ni  Ni51  1  0.83361086  0.83380496  0.50020152  1
  Ni  Ni52  1  0.66696456  0.66700085  0.66683959  1
  Ni  Ni53  1  0.83492126  0.83460452  0.83295354  1
" 