3972,Ni95Fe3Cr0_15,-240.209156688239, 182.839527943304,Ni95Fe3Cr0,"# generated using pymatgen
 data_CrFe2Ni51
_symmetry_space_group_name_H-M   'P 1'
_cell_length_a   7.45570853
_cell_length_b   7.45570853
_cell_length_c   10.54396412
_cell_angle_alpha   90.00000000
_cell_angle_beta   90.00000000
_cell_angle_gamma   90.00000000
_symmetry_Int_Tables_number   1
_chemical_formula_structural   CrFe2Ni51
_chemical_formula_sum   'Cr1 Fe2 Ni51'
_cell_volume   586.11355171
_cell_formula_units_Z   1
loop_
 _symmetry_equiv_pos_site_id
 _symmetry_equiv_pos_as_xyz
  1  'x, y, z'
loop_
 _atom_site_type_symbol
 _atom_site_label
 _atom_site_symmetry_multiplicity
 _atom_site_fract_x
 _atom_site_fract_y
 _atom_site_fract_z
 _atom_site_occupancy
  Ni  Ni0  1  0.00142389  1.00063171  1.00072691  1
  Ni  Ni1  1  0.16614928  0.16614769  0.16631374  1
  Ni  Ni2  1  1.00051489  1.00043582  0.33415046  1
  Ni  Ni3  1  1.00020999  0.33356076  0.00104982  1
  Ni  Ni4  1  0.16610355  0.50208398  0.16591985  1
  Ni  Ni5  1  0.99906422  0.33383807  0.33378246  1
  Ni  Ni6  1  1.00009697  0.66809055  1.00074350  1
  Ni  Ni7  1  0.16753141  0.83408189  0.16772313  1
  Ni  Ni8  1  1.00017752  0.66801000  0.33378631  1
  Ni  Ni9  1  0.33329667  1.00075787  0.00104989  1
  Ni  Ni10  1  0.50197639  0.16621114  0.16624976  1
  Ni  Ni11  1  0.33400901  0.99935556  0.33415414  1
  Ni  Ni12  1  0.33463121  0.33355631  1.00025493  1
  Ni  Ni13  1  0.50203984  0.50203824  0.16631374  1
  Cr  Cr14  1  0.33429124  0.33389628  0.33384420  1
  Ni  Ni15  1  0.33462677  0.66797753  0.00104982  1
  Ni  Ni16  1  0.50054611  0.83399746  0.16767387  1
  Ni  Ni17  1  0.33434946  0.66912331  0.33378246  1
  Fe  Fe18  1  0.66734454  0.00084298  0.00088645  1
  Ni  Ni19  1  0.83419007  0.16764142  0.16767387  1
  Ni  Ni20  1  0.66775086  1.00043666  0.33342553  1
  Ni  Ni21  1  0.66742965  0.33489086  0.00104989  1
  Ni  Ni22  1  0.83410563  0.50065611  0.16772313  1
  Ni  Ni23  1  0.66883197  0.33417852  0.33415414  1
  Ni  Ni24  1  0.66755582  0.66676364  1.00072691  1
  Ni  Ni25  1  0.83416238  0.83402515  0.16669201  1
  Ni  Ni26  1  0.66775171  0.66767263  0.33415046  1
  Ni  Ni27  1  0.16609386  0.16623365  0.50199812  1
  Ni  Ni28  1  1.00074239  1.00067594  0.66737498  1
  Ni  Ni29  1  0.16687741  0.16688063  0.83400709  1
  Ni  Ni30  1  0.16608470  0.50210282  0.50200888  1
  Ni  Ni31  1  1.00050818  0.33384673  0.66744374  1
  Ni  Ni32  1  0.16687141  0.50131611  0.83437015  1
  Ni  Ni33  1  0.16755769  0.83395709  0.50054116  1
  Ni  Ni34  1  1.00044685  0.66774068  0.66770254  1
  Ni  Ni35  1  0.16841722  0.83408233  0.83401219  1
  Ni  Ni36  1  0.50223044  0.16595709  0.50198955  1
  Ni  Ni37  1  0.33403267  1.00075926  0.66709070  1
  Ni  Ni38  1  0.50125801  0.16692951  0.83408140  1
  Ni  Ni39  1  0.50195388  0.50209367  0.50199812  1
  Ni  Ni40  1  0.33434452  0.33384300  0.66824798  1
  Ni  Ni41  1  0.50130690  0.50131012  0.83400709  1
  Ni  Ni42  1  0.50077933  0.83424245  0.50054338  1
  Ni  Ni43  1  0.33434079  0.66767934  0.66744374  1
  Ni  Ni44  1  0.49974912  0.83402670  0.83408262  1
  Ni  Ni45  1  0.83394508  0.16740820  0.50054338  1
  Ni  Ni46  1  0.66753849  1.00064904  0.66812660  1
  Ni  Ni47  1  0.83416083  0.16843840  0.83408262  1
  Ni  Ni48  1  0.83423044  0.50062984  0.50054116  1
  Ni  Ni49  1  0.66742827  0.33415486  0.66709070  1
  Ni  Ni50  1  0.83410519  0.49977030  0.83401219  1
  Ni  Ni51  1  0.83394781  0.83423972  0.50149729  1
  Ni  Ni52  1  0.66751159  0.66744514  0.66737498  1
  Fe  Fe53  1  0.83443907  0.83374845  0.83379948  1
" 