5528,Ni95Fe3Cr1_3,-239.004822099465, 177.501041188539,Ni95Fe3Cr1,"# generated using pymatgen
 data_Cr2FeNi51
_symmetry_space_group_name_H-M   'P 1'
_cell_length_a   7.46179415
_cell_length_b   7.46179415
_cell_length_c   10.55257049
_cell_angle_alpha   90.00000000
_cell_angle_beta   90.00000000
_cell_angle_gamma   90.00000000
_symmetry_Int_Tables_number   1
_chemical_formula_structural   Cr2FeNi51
_chemical_formula_sum   'Cr2 Fe1 Ni51'
_cell_volume   587.54994461
_cell_formula_units_Z   1
loop_
 _symmetry_equiv_pos_site_id
 _symmetry_equiv_pos_as_xyz
  1  'x, y, z'
loop_
 _atom_site_type_symbol
 _atom_site_label
 _atom_site_symmetry_multiplicity
 _atom_site_fract_x
 _atom_site_fract_y
 _atom_site_fract_z
 _atom_site_occupancy
  Ni  Ni0  1  0.99980810  0.99872923  0.00130301  1
  Ni  Ni1  1  0.16685154  0.16685921  0.16728978  1
  Ni  Ni2  1  0.00058258  1.00009061  0.33332639  1
  Ni  Ni3  1  0.99983797  0.33542981  0.00127264  1
  Ni  Ni4  1  0.16693463  0.50025175  0.16706754  1
  Ni  Ni5  1  0.00057749  0.33401866  0.33355961  1
  Ni  Ni6  1  0.99969613  0.66687775  1.00017798  1
  Ni  Ni7  1  0.16677067  0.83394534  0.16683231  1
  Ni  Ni8  1  0.00043139  0.66694416  0.33389714  1
  Ni  Ni9  1  0.33486680  1.00008664  0.00124906  1
  Ni  Ni10  1  0.50035846  0.16701879  0.16709557  1
  Ni  Ni11  1  0.33377383  0.00038728  0.33389337  1
  Ni  Ni12  1  0.33467120  0.33390704  0.00121782  1
  Ni  Ni13  1  0.50062298  0.50038884  0.16688450  1
  Ni  Ni14  1  0.33266274  0.33259072  0.33282868  1
  Fe  Fe15  1  0.33382143  0.66707444  0.00044054  1
  Ni  Ni16  1  0.50062610  0.83363870  0.16731910  1
  Ni  Ni17  1  0.33246681  0.66808627  0.33210490  1
  Ni  Ni18  1  0.66633539  0.99988150  1.00018104  1
  Ni  Ni19  1  0.83385460  0.16686326  0.16653810  1
  Ni  Ni20  1  0.66670037  1.00024353  0.33356283  1
  Ni  Ni21  1  0.66650126  0.33414205  1.00018349  1
  Ni  Ni22  1  0.83351560  0.50049848  0.16731826  1
  Ni  Ni23  1  0.66783940  0.33271255  0.33245544  1
  Ni  Ni24  1  0.66787829  0.66703352  0.00041379  1
  Ni  Ni25  1  0.83367950  0.83369631  0.16708671  1
  Ni  Ni26  1  0.66818603  0.66811540  0.33276570  1
  Ni  Ni27  1  0.16671595  0.16683585  0.50012564  1
  Ni  Ni28  1  0.99952589  0.99903271  0.66643934  1
  Cr  Cr29  1  0.16618540  0.16649208  0.83368809  1
  Ni  Ni30  1  0.16562204  0.50047208  0.50055838  1
  Ni  Ni31  1  0.99952830  0.33504739  0.66623459  1
  Ni  Ni32  1  0.16699017  0.50184499  0.83350220  1
  Ni  Ni33  1  0.16697030  0.83374721  0.50056155  1
  Ni  Ni34  1  1.00034761  0.66695269  0.66697244  1
  Ni  Ni35  1  0.16682571  0.83221655  0.83373013  1
  Ni  Ni36  1  0.50046281  0.16549348  0.50055557  1
  Ni  Ni37  1  0.33478075  0.99935750  0.66592327  1
  Ni  Ni38  1  0.50183203  0.16701455  0.83342364  1
  Cr  Cr39  1  0.50074926  0.50102464  0.49995825  1
  Ni  Ni40  1  0.33369967  0.33362866  0.66696249  1
  Ni  Ni41  1  0.50060449  0.50047184  0.83389724  1
  Ni  Ni42  1  0.50038330  0.83505505  0.50032665  1
  Ni  Ni43  1  0.33259967  0.66805936  0.66870738  1
  Ni  Ni44  1  0.50060614  0.83356324  0.83345942  1
  Ni  Ni45  1  0.83388047  0.16683874  0.50056280  1
  Ni  Ni46  1  0.66671029  1.00016887  0.66731969  1
  Ni  Ni47  1  0.83213336  0.16685870  0.83396005  1
  Ni  Ni48  1  0.83518201  0.50039559  0.50032416  1
  Ni  Ni49  1  0.66781358  0.33284845  0.66836768  1
  Ni  Ni50  1  0.83350608  0.50051872  0.83340914  1
  Ni  Ni51  1  0.83370043  0.83382035  0.50032575  1
  Ni  Ni52  1  0.66813207  0.66805576  0.66781209  1
  Ni  Ni53  1  0.83367019  0.83368241  0.83363631  1
" 