5287,Ni95Fe3Cr1_17,-239.049359168464, 178.238389424878,Ni95Fe3Cr1,"# generated using pymatgen
 data_Cr2FeNi51
_symmetry_space_group_name_H-M   'P 1'
_cell_length_a   7.46149913
_cell_length_b   7.46149913
_cell_length_c   10.55215327
_cell_angle_alpha   90.00000000
_cell_angle_beta   90.00000000
_cell_angle_gamma   90.00000000
_symmetry_Int_Tables_number   1
_chemical_formula_structural   Cr2FeNi51
_chemical_formula_sum   'Cr2 Fe1 Ni51'
_cell_volume   587.48025660
_cell_formula_units_Z   1
loop_
 _symmetry_equiv_pos_site_id
 _symmetry_equiv_pos_as_xyz
  1  'x, y, z'
loop_
 _atom_site_type_symbol
 _atom_site_label
 _atom_site_symmetry_multiplicity
 _atom_site_fract_x
 _atom_site_fract_y
 _atom_site_fract_z
 _atom_site_occupancy
  Ni  Ni0  1  1.00005936  1.00012921  0.00084118  1
  Ni  Ni1  1  0.16718293  0.16525925  0.16726143  1
  Ni  Ni2  1  0.99983658  0.99983320  0.33370642  1
  Ni  Ni3  1  0.99908832  0.33287839  0.99973662  1
  Cr  Cr4  1  0.16702725  0.50007439  0.16687093  1
  Ni  Ni5  1  0.99983045  0.33224211  0.33369239  1
  Ni  Ni6  1  0.99942003  0.66808846  0.99942173  1
  Ni  Ni7  1  0.16715120  0.83540066  0.16695161  1
  Ni  Ni8  1  0.00119752  0.66903009  0.33367688  1
  Ni  Ni9  1  0.33387513  1.00012676  0.00084263  1
  Ni  Ni10  1  0.50037650  0.16674694  0.16693838  1
  Ni  Ni11  1  0.33414925  0.99985238  0.33347601  1
  Ni  Ni12  1  0.33501062  0.33303661  0.99973460  1
  Ni  Ni13  1  0.50196048  0.50034005  0.16727100  1
  Ni  Ni14  1  0.33526210  0.33330895  0.33475601  1
  Ni  Ni15  1  0.33466418  0.66793304  0.99940323  1
  Ni  Ni16  1  0.50034289  0.83409229  0.16700631  1
  Ni  Ni17  1  0.33394225  0.66794194  0.33473444  1
  Ni  Ni18  1  0.66718280  0.00045834  1.00025046  1
  Ni  Ni19  1  0.83355517  0.16690668  0.16716726  1
  Ni  Ni20  1  0.66711560  0.00120737  0.33393554  1
  Ni  Ni21  1  0.66702729  0.33368767  0.00048895  1
  Ni  Ni22  1  0.83216400  0.50033776  0.16683123  1
  Ni  Ni23  1  0.66600580  0.33199989  0.33264528  1
  Ni  Ni24  1  0.66702541  0.66697740  0.00116490  1
  Ni  Ni25  1  0.83359310  0.83392661  0.16722728  1
  Fe  Fe26  1  0.66610426  0.66815534  0.33294608  1
  Ni  Ni27  1  0.16720944  0.16688368  0.49992890  1
  Ni  Ni28  1  1.00019564  1.00013090  0.66657270  1
  Ni  Ni29  1  0.16718650  0.16691259  0.83393519  1
  Ni  Ni30  1  0.16853836  0.50037282  0.50065226  1
  Ni  Ni31  1  0.00115790  0.33288757  0.66766305  1
  Ni  Ni32  1  0.16701685  0.50025700  0.83327524  1
  Ni  Ni33  1  0.16717444  0.83387238  0.50023800  1
  Ni  Ni34  1  0.00140878  0.66808597  0.66794015  1
  Ni  Ni35  1  0.16718509  0.83394657  0.83393012  1
  Ni  Ni36  1  0.50033522  0.16674254  0.50045392  1
  Ni  Ni37  1  0.33380244  1.00013000  0.66680451  1
  Ni  Ni38  1  0.50025891  0.16674512  0.83370349  1
  Ni  Ni39  1  0.49865707  0.50026132  0.50022195  1
  Ni  Ni40  1  0.33395832  0.33401098  0.66657185  1
  Ni  Ni41  1  0.50049525  0.50049814  0.83371016  1
  Ni  Ni42  1  0.50021907  0.83414576  0.50045687  1
  Ni  Ni43  1  0.33365107  0.66697638  0.66690124  1
  Ni  Ni44  1  0.50049916  0.83386925  0.83370680  1
  Ni  Ni45  1  0.83356164  0.16537704  0.50044401  1
  Ni  Ni46  1  0.66711505  0.00043576  0.66690100  1
  Ni  Ni47  1  0.83367171  0.16691016  0.83347706  1
  Cr  Cr48  1  0.83388061  0.50018597  0.50030157  1
  Ni  Ni49  1  0.66600084  0.33279115  0.66794634  1
  Ni  Ni50  1  0.83360140  0.50049770  0.83413943  1
  Ni  Ni51  1  0.83370283  0.83555165  0.50047399  1
  Ni  Ni52  1  0.66601153  0.66792005  0.66726543  1
  Ni  Ni53  1  0.83343202  0.83370739  0.83348356  1
" 