4024,Ni95Fe3Cr1_4,-239.066402920643, 178.035597260927,Ni95Fe3Cr1,"# generated using pymatgen
 data_Cr2FeNi51
_symmetry_space_group_name_H-M   'P 1'
_cell_length_a   7.46120254
_cell_length_b   7.46120254
_cell_length_c   10.55173383
_cell_angle_alpha   90.00000000
_cell_angle_beta   90.00000000
_cell_angle_gamma   90.00000000
_symmetry_Int_Tables_number   1
_chemical_formula_structural   Cr2FeNi51
_chemical_formula_sum   'Cr2 Fe1 Ni51'
_cell_volume   587.41020377
_cell_formula_units_Z   1
loop_
 _symmetry_equiv_pos_site_id
 _symmetry_equiv_pos_as_xyz
  1  'x, y, z'
loop_
 _atom_site_type_symbol
 _atom_site_label
 _atom_site_symmetry_multiplicity
 _atom_site_fract_x
 _atom_site_fract_y
 _atom_site_fract_z
 _atom_site_occupancy
  Cr  Cr0  1  1.00023015  1.00021455  0.00073398  1
  Ni  Ni1  1  0.16810218  0.16800490  0.16745283  1
  Ni  Ni2  1  0.00210398  0.00052002  0.33394741  1
  Ni  Ni3  1  0.00042987  0.33555675  0.00043113  1
  Ni  Ni4  1  0.16697802  0.50046045  0.16686328  1
  Ni  Ni5  1  0.00069122  0.33375000  0.33351809  1
  Ni  Ni6  1  0.00053664  0.66538910  0.00043210  1
  Ni  Ni7  1  0.16811287  0.83274829  0.16814056  1
  Ni  Ni8  1  0.00044837  0.66690841  0.33351411  1
  Ni  Ni9  1  0.33546100  1.00028007  0.00067634  1
  Ni  Ni10  1  0.49943682  0.16800154  0.16604383  1
  Ni  Ni11  1  0.33196073  0.00052046  0.33350707  1
  Ni  Ni12  1  0.33384279  0.33413973  0.00040763  1
  Ni  Ni13  1  0.50022620  0.50014325  0.16699545  1
  Ni  Ni14  1  0.33356840  0.33392284  0.33374656  1
  Ni  Ni15  1  0.33376100  0.66676573  0.00043629  1
  Ni  Ni16  1  0.49910015  0.83303066  0.16568461  1
  Ni  Ni17  1  0.33381178  0.66673240  0.33374579  1
  Ni  Ni18  1  0.66554762  1.00039052  1.00022927  1
  Ni  Ni19  1  0.83367163  0.16911754  0.16708756  1
  Cr  Cr20  1  0.66704262  1.00028857  0.33351339  1
  Ni  Ni21  1  0.66692157  0.33388406  0.00066355  1
  Ni  Ni22  1  0.83397228  0.50014405  0.16676138  1
  Ni  Ni23  1  0.66691337  0.33558238  0.33374288  1
  Ni  Ni24  1  0.66688654  0.66690514  1.00036126  1
  Ni  Ni25  1  0.83394735  0.83189924  0.16678536  1
  Ni  Ni26  1  0.66691273  0.66531533  0.33374425  1
  Ni  Ni27  1  0.16707116  0.16699956  0.50085322  1
  Ni  Ni28  1  1.00027943  1.00030159  0.66657894  1
  Fe  Fe29  1  0.16800020  0.16786505  0.83286975  1
  Ni  Ni30  1  0.16691281  0.50047792  0.50038887  1
  Ni  Ni31  1  0.00045958  0.33393679  0.66725054  1
  Ni  Ni32  1  0.16698269  0.50118801  0.83389714  1
  Ni  Ni33  1  0.16706938  0.83371768  0.50017027  1
  Ni  Ni34  1  0.00052165  0.66694729  0.66720750  1
  Ni  Ni35  1  0.16808929  0.83199699  0.83282187  1
  Ni  Ni36  1  0.49946412  0.16794608  0.50121514  1
  Ni  Ni37  1  0.33381265  1.00031043  0.66702063  1
  Ni  Ni38  1  0.50117698  0.16699737  0.83389815  1
  Ni  Ni39  1  0.50021907  0.50013862  0.50051824  1
  Ni  Ni40  1  0.33380237  0.33409474  0.66703144  1
  Ni  Ni41  1  0.50001907  0.49987396  0.83366446  1
  Ni  Ni42  1  0.49910588  0.83308772  0.50159867  1
  Ni  Ni43  1  0.33374480  0.66679546  0.66698042  1
  Ni  Ni44  1  0.49984252  0.83431934  0.83389681  1
  Ni  Ni45  1  0.83464605  0.16810232  0.50122399  1
  Ni  Ni46  1  0.66709831  1.00037319  0.66741457  1
  Ni  Ni47  1  0.83187187  0.16809934  0.83282785  1
  Ni  Ni48  1  0.83404127  0.50014113  0.50051478  1
  Ni  Ni49  1  0.66694316  0.33387267  0.66675664  1
  Ni  Ni50  1  0.83418867  0.49985449  0.83389671  1
  Ni  Ni51  1  0.83498879  0.83292918  0.50159074  1
  Ni  Ni52  1  0.66691014  0.66692761  0.66707329  1
  Ni  Ni53  1  0.83327191  0.83324115  0.83282508  1
" 