6819,Ni95Fe3Cr0_17,-240.185791867722, 183.165377255116,Ni95Fe3Cr0,"# generated using pymatgen
 data_CrFe2Ni51
_symmetry_space_group_name_H-M   'P 1'
_cell_length_a   7.45615097
_cell_length_b   7.45615097
_cell_length_c   10.54458982
_cell_angle_alpha   90.00000000
_cell_angle_beta   90.00000000
_cell_angle_gamma   90.00000000
_symmetry_Int_Tables_number   1
_chemical_formula_structural   CrFe2Ni51
_chemical_formula_sum   'Cr1 Fe2 Ni51'
_cell_volume   586.21790078
_cell_formula_units_Z   1
loop_
 _symmetry_equiv_pos_site_id
 _symmetry_equiv_pos_as_xyz
  1  'x, y, z'
loop_
 _atom_site_type_symbol
 _atom_site_label
 _atom_site_symmetry_multiplicity
 _atom_site_fract_x
 _atom_site_fract_y
 _atom_site_fract_z
 _atom_site_occupancy
  Ni  Ni0  1  0.00106912  1.00033575  0.00120711  1
  Ni  Ni1  1  0.16755583  0.16728508  0.16725948  1
  Ni  Ni2  1  0.00116460  1.00024478  0.33389037  1
  Ni  Ni3  1  0.00194771  0.33320804  1.00008024  1
  Ni  Ni4  1  0.16889482  0.50061689  0.16736495  1
  Ni  Ni5  1  0.00227749  0.33359465  0.33484903  1
  Ni  Ni6  1  0.00187492  0.66861444  0.99975775  1
  Ni  Ni7  1  0.16752668  0.83429915  0.16807542  1
  Ni  Ni8  1  0.00097996  0.66837548  0.33495228  1
  Ni  Ni9  1  0.33391816  1.00066386  1.00060895  1
  Ni  Ni10  1  0.50032094  0.16696623  0.16761202  1
  Ni  Ni11  1  0.33412204  0.00161060  0.33412844  1
  Ni  Ni12  1  0.33419912  0.33403002  0.00083216  1
  Ni  Ni13  1  0.49896521  0.50091968  0.16769952  1
  Ni  Ni14  1  0.33407213  0.33336486  0.33381859  1
  Ni  Ni15  1  0.33391807  0.66748425  0.00155973  1
  Ni  Ni16  1  0.50069846  0.83432806  0.16732463  1
  Fe  Fe17  1  0.33438489  0.66729508  0.33389494  1
  Ni  Ni18  1  0.66720457  1.00061822  0.00120634  1
  Ni  Ni19  1  0.83431767  0.16551179  0.16798421  1
  Ni  Ni20  1  0.66690418  1.00019433  0.33381687  1
  Ni  Ni21  1  0.66603323  0.33319953  1.00007084  1
  Cr  Cr22  1  0.83424917  0.50060526  0.16721861  1
  Ni  Ni23  1  0.66581743  0.33355972  0.33523400  1
  Ni  Ni24  1  0.66639134  0.66834035  0.99974660  1
  Ni  Ni25  1  0.83399646  0.83555736  0.16727084  1
  Ni  Ni26  1  0.66720619  0.66837758  0.33482841  1
  Ni  Ni27  1  0.16757084  0.16803765  0.50084652  1
  Ni  Ni28  1  1.00068414  1.00060715  0.66716173  1
  Ni  Ni29  1  0.16744460  0.16729109  0.83408127  1
  Ni  Ni30  1  0.16734481  0.49991796  0.50054037  1
  Ni  Ni31  1  0.00097825  0.33429244  0.66717994  1
  Ni  Ni32  1  0.16755079  0.50080327  0.83432418  1
  Fe  Fe33  1  0.16725942  0.83466557  0.50118562  1
  Ni  Ni34  1  1.00058464  0.66731543  0.66747989  1
  Ni  Ni35  1  0.16772126  0.83410009  0.83336418  1
  Ni  Ni36  1  0.50002300  0.16667918  0.50084533  1
  Ni  Ni37  1  0.33418059  0.00090981  0.66749666  1
  Ni  Ni38  1  0.50043862  0.16696797  0.83372605  1
  Ni  Ni39  1  0.50024102  0.50120081  0.50055675  1
  Ni  Ni40  1  0.33407802  0.33416875  0.66752859  1
  Ni  Ni41  1  0.50032279  0.50112362  0.83396498  1
  Ni  Ni42  1  0.50143483  0.83434452  0.50080711  1
  Ni  Ni43  1  0.33414222  0.66714975  0.66673872  1
  Ni  Ni44  1  0.50047840  0.83410146  0.83408133  1
  Ni  Ni45  1  0.83460261  0.16684133  0.50025503  1
  Ni  Ni46  1  0.66731950  1.00050094  0.66718106  1
  Ni  Ni47  1  0.83431164  0.16713665  0.83396618  1
  Ni  Ni48  1  0.83459127  0.50125742  0.50104759  1
  Ni  Ni49  1  0.66713093  0.33429616  0.66681548  1
  Ni  Ni50  1  0.83431330  0.50084280  0.83352833  1
  Ni  Ni51  1  0.83327157  0.83409488  0.50061204  1
  Ni  Ni52  1  0.66744047  0.66739992  0.66752699  1
  Ni  Ni53  1  0.83398874  0.83421096  0.83432434  1
" 