7747,Ni95Fe3Cr1_19,-239.043308224267, 177.837245152379,Ni95Fe3Cr1,"# generated using pymatgen
 data_Cr2FeNi51
_symmetry_space_group_name_H-M   'P 1'
_cell_length_a   7.46131761
_cell_length_b   7.46131761
_cell_length_c   10.55189656
_cell_angle_alpha   90.00000000
_cell_angle_beta   90.00000000
_cell_angle_gamma   90.00000000
_symmetry_Int_Tables_number   1
_chemical_formula_structural   Cr2FeNi51
_chemical_formula_sum   'Cr2 Fe1 Ni51'
_cell_volume   587.43738271
_cell_formula_units_Z   1
loop_
 _symmetry_equiv_pos_site_id
 _symmetry_equiv_pos_as_xyz
  1  'x, y, z'
loop_
 _atom_site_type_symbol
 _atom_site_label
 _atom_site_symmetry_multiplicity
 _atom_site_fract_x
 _atom_site_fract_y
 _atom_site_fract_z
 _atom_site_occupancy
  Ni  Ni0  1  0.00113668  0.99950454  0.99944512  1
  Ni  Ni1  1  0.16866391  0.16697703  0.16717807  1
  Ni  Ni2  1  0.00121984  0.99952095  0.33452271  1
  Ni  Ni3  1  0.00139144  0.33472477  0.99945221  1
  Ni  Ni4  1  0.16618574  0.49951907  0.16684228  1
  Ni  Ni5  1  0.00118296  0.33451630  0.33460687  1
  Ni  Ni6  1  0.00045978  0.66691154  0.00075449  1
  Ni  Ni7  1  0.16617471  0.83461543  0.16614347  1
  Ni  Ni8  1  0.99866656  0.66715374  0.33349962  1
  Ni  Ni9  1  0.33384023  0.00044254  0.00075801  1
  Ni  Ni10  1  0.49848640  0.16729673  0.16752479  1
  Ni  Ni11  1  0.33371263  0.00192516  0.33348833  1
  Ni  Ni12  1  0.33357821  0.33379311  0.00075449  1
  Ni  Ni13  1  0.50128209  0.49950804  0.16614347  1
  Ni  Ni14  1  0.33382041  0.33199989  0.33349962  1
  Ni  Ni15  1  0.33358019  0.66691352  1.00009881  1
  Ni  Ni16  1  0.50102427  0.83435760  0.16642886  1
  Cr  Cr17  1  0.33389540  0.66722874  0.33363919  1
  Ni  Ni18  1  0.66616474  0.99949807  0.99943302  1
  Cr  Cr19  1  0.83390354  0.16723687  0.16723740  1
  Ni  Ni20  1  0.66618537  0.99951871  0.33487404  1
  Ni  Ni21  1  0.66617120  0.33447001  0.99944512  1
  Ni  Ni22  1  0.83364370  0.50199724  0.16717807  1
  Ni  Ni23  1  0.66618762  0.33455317  0.33452271  1
  Ni  Ni24  1  0.66710920  0.66717356  0.00075801  1
  Ni  Ni25  1  0.83396340  0.83181974  0.16752479  1
  Ni  Ni26  1  0.66859182  0.66704596  0.33348833  1
  Ni  Ni27  1  0.16711061  0.16627399  0.50001259  1
  Ni  Ni28  1  1.00021862  0.00049407  0.66716275  1
  Ni  Ni29  1  0.16720309  0.16696578  0.83398022  1
  Fe  Fe30  1  0.16633276  0.49966609  0.50136330  1
  Ni  Ni31  1  1.00016689  0.33350023  0.66709595  1
  Ni  Ni32  1  0.16719121  0.50052455  0.83304806  1
  Ni  Ni33  1  0.16618841  0.83544941  0.50131104  1
  Ni  Ni34  1  1.00014659  0.66713225  0.66687888  1
  Ni  Ni35  1  0.16719581  0.83364469  0.83373694  1
  Ni  Ni36  1  0.49978376  0.16759130  0.50001876  1
  Ni  Ni37  1  0.33373360  0.00051228  0.66692766  1
  Ni  Ni38  1  0.49997951  0.16729466  0.83361395  1
  Ni  Ni39  1  0.50211608  0.49952175  0.50131104  1
  Ni  Ni40  1  0.33379891  0.33347992  0.66687888  1
  Ni  Ni41  1  0.50031135  0.50052915  0.83373694  1
  Ni  Ni42  1  0.50069142  0.83402476  0.50130910  1
  Ni  Ni43  1  0.33381564  0.66714897  0.66732075  1
  Ni  Ni44  1  0.49999869  0.83333202  0.83339456  1
  Ni  Ni45  1  0.83423446  0.16756779  0.50067044  1
  Ni  Ni46  1  0.66719775  0.00053109  0.66681917  1
  Ni  Ni47  1  0.83396565  0.16729898  0.83318615  1
  Ni  Ni48  1  0.83294065  0.50044394  0.50001259  1
  Ni  Ni49  1  0.66716074  0.33355196  0.66716275  1
  Ni  Ni50  1  0.83363245  0.50053642  0.83398022  1
  Ni  Ni51  1  0.83425797  0.83311709  0.50001876  1
  Ni  Ni52  1  0.66717895  0.66706693  0.66692766  1
  Ni  Ni53  1  0.83396132  0.83331284  0.83361395  1
" 