1521,Ni95Fe3Cr0_2,-240.204738037875, 183.107066130036,Ni95Fe3Cr0,"# generated using pymatgen
 data_CrFe2Ni51
_symmetry_space_group_name_H-M   'P 1'
_cell_length_a   7.45598090
_cell_length_b   7.45598090
_cell_length_c   10.54434931
_cell_angle_alpha   90.00000000
_cell_angle_beta   90.00000000
_cell_angle_gamma   90.00000000
_symmetry_Int_Tables_number   1
_chemical_formula_structural   CrFe2Ni51
_chemical_formula_sum   'Cr1 Fe2 Ni51'
_cell_volume   586.17778835
_cell_formula_units_Z   1
loop_
 _symmetry_equiv_pos_site_id
 _symmetry_equiv_pos_as_xyz
  1  'x, y, z'
loop_
 _atom_site_type_symbol
 _atom_site_label
 _atom_site_symmetry_multiplicity
 _atom_site_fract_x
 _atom_site_fract_y
 _atom_site_fract_z
 _atom_site_occupancy
  Ni  Ni0  1  0.00118007  0.00079399  1.00048759  1
  Ni  Ni1  1  0.16747018  0.16761932  0.16763651  1
  Ni  Ni2  1  0.00117880  1.00068070  0.33438691  1
  Ni  Ni3  1  1.00069701  0.33408838  0.00108461  1
  Ni  Ni4  1  0.16780630  0.50027630  0.16727347  1
  Ni  Ni5  1  0.00230311  0.33421272  0.33399901  1
  Ni  Ni6  1  0.00118000  0.66733717  1.00012247  1
  Ni  Ni7  1  0.16752830  0.83433203  0.16702999  1
  Ni  Ni8  1  0.00117953  0.66733340  0.33438712  1
  Ni  Ni9  1  0.33379067  1.00039228  0.00079665  1
  Ni  Ni10  1  0.49950296  0.16645893  0.16580126  1
  Ni  Ni11  1  0.33403586  1.00062154  0.33401842  1
  Ni  Ni12  1  0.33399102  0.33415038  1.00027445  1
  Ni  Ni13  1  0.49950181  0.50177726  0.16652751  1
  Ni  Ni14  1  0.33267409  0.33393352  0.33475431  1
  Ni  Ni15  1  0.33387760  0.66765653  0.00084065  1
  Ni  Ni16  1  0.50094391  0.83399818  0.16763696  1
  Ni  Ni17  1  0.33375289  0.66767742  0.33401538  1
  Ni  Ni18  1  0.66727566  0.00087405  1.00071275  1
  Ni  Ni19  1  0.83528500  0.16615062  0.16650370  1
  Ni  Ni20  1  0.66700824  0.99953891  0.33438740  1
  Ni  Ni21  1  0.66757799  0.33417450  1.00060483  1
  Ni  Ni22  1  0.83493691  0.50174257  0.16612780  1
  Cr  Cr23  1  0.66767949  0.33392345  0.33370285  1
  Ni  Ni24  1  0.66717212  0.66717001  1.00073512  1
  Ni  Ni25  1  0.83375552  0.83433692  0.16727370  1
  Ni  Ni26  1  0.66728922  0.66875541  0.33438748  1
  Ni  Ni27  1  0.16724303  0.16737991  0.50049688  1
  Ni  Ni28  1  0.00146804  0.00110442  0.66735361  1
  Ni  Ni29  1  0.16652047  0.16747615  0.83412371  1
  Ni  Ni30  1  0.16755158  0.50053306  0.50083297  1
  Ni  Ni31  1  0.99985846  0.33408541  0.66711265  1
  Ni  Ni32  1  0.16785402  0.50012537  0.83413399  1
  Ni  Ni33  1  0.16764394  0.83432971  0.50103006  1
  Ni  Ni34  1  0.00147387  0.66703687  0.66771374  1
  Ni  Ni35  1  0.16795033  0.83461669  0.83415992  1
  Ni  Ni36  1  0.49971999  0.16634893  0.50234604  1
  Ni  Ni37  1  0.33383784  0.99972292  0.66742863  1
  Fe  Fe38  1  0.50103050  0.16699562  0.83437101  1
  Ni  Ni39  1  0.49974977  0.50190682  0.50158927  1
  Fe  Fe40  1  0.33353081  0.33441493  0.66722862  1
  Ni  Ni41  1  0.50080162  0.50161815  0.83409474  1
  Ni  Ni42  1  0.50081561  0.83401363  0.50044099  1
  Ni  Ni43  1  0.33388775  0.66841568  0.66735383  1
  Ni  Ni44  1  0.50092497  0.83324416  0.83415645  1
  Ni  Ni45  1  0.83518828  0.16631845  0.50151308  1
  Ni  Ni46  1  0.66692763  0.00121621  0.66717899  1
  Ni  Ni47  1  0.83493031  0.16738189  0.83415547  1
  Ni  Ni48  1  0.83485793  0.50158010  0.50187673  1
  Ni  Ni49  1  0.66818981  0.33413382  0.66764243  1
  Ni  Ni50  1  0.83355810  0.50021825  0.83416073  1
  Ni  Ni51  1  0.83376035  0.83433674  0.50115686  1
  Ni  Ni52  1  0.66687133  0.66689087  0.66711313  1
  Ni  Ni53  1  0.83335477  0.83462411  0.83380194  1
" 