2213,Ni95Fe2Cr2_2,-239.046972956059, 177.826091968,Ni95Fe2Cr2,"# generated using pymatgen
 data_Cr2FeNi51
_symmetry_space_group_name_H-M   'P 1'
_cell_length_a   7.46109038
_cell_length_b   7.46109038
_cell_length_c   10.55157521
_cell_angle_alpha   90.00000000
_cell_angle_beta   90.00000000
_cell_angle_gamma   90.00000000
_symmetry_Int_Tables_number   1
_chemical_formula_structural   Cr2FeNi51
_chemical_formula_sum   'Cr2 Fe1 Ni51'
_cell_volume   587.38371339
_cell_formula_units_Z   1
loop_
 _symmetry_equiv_pos_site_id
 _symmetry_equiv_pos_as_xyz
  1  'x, y, z'
loop_
 _atom_site_type_symbol
 _atom_site_label
 _atom_site_symmetry_multiplicity
 _atom_site_fract_x
 _atom_site_fract_y
 _atom_site_fract_z
 _atom_site_occupancy
  Ni  Ni0  1  0.99991082  0.00085607  0.00149540  1
  Ni  Ni1  1  0.16705197  0.16696141  0.16710565  1
  Ni  Ni2  1  0.00220834  1.00016986  0.33344084  1
  Ni  Ni3  1  0.00113915  0.33440029  1.00021621  1
  Ni  Ni4  1  0.16699094  0.50034011  0.16683369  1
  Ni  Ni5  1  0.00096201  0.33415090  0.33344132  1
  Ni  Ni6  1  0.99870333  0.66590766  0.00125042  1
  Ni  Ni7  1  0.16698499  0.83389020  0.16749171  1
  Ni  Ni8  1  0.00048505  0.66688023  0.33378188  1
  Ni  Ni9  1  0.33477138  0.00221034  0.00149712  1
  Ni  Ni10  1  0.49958036  0.16815754  0.16630560  1
  Ni  Ni11  1  0.33219930  0.00048753  0.33378232  1
  Ni  Ni12  1  0.33351096  0.33307927  1.00020972  1
  Ni  Ni13  1  0.50068908  0.50018790  0.16727456  1
  Ni  Ni14  1  0.33341841  0.33381888  0.33379532  1
  Fe  Fe15  1  0.33445240  0.66592817  0.00110569  1
  Ni  Ni16  1  0.49942699  0.83279135  0.16598608  1
  Ni  Ni17  1  0.33357717  0.66687804  0.33311607  1
  Ni  Ni18  1  0.66654011  0.99980282  1.00001133  1
  Ni  Ni19  1  0.83459043  0.16822773  0.16597064  1
  Cr  Cr20  1  0.66687711  1.00009102  0.33349919  1
  Ni  Ni21  1  0.66655608  0.33422597  0.00065972  1
  Ni  Ni22  1  0.83355313  0.50024062  0.16732952  1
  Ni  Ni23  1  0.66681791  0.33555874  0.33343586  1
  Ni  Ni24  1  0.66782683  0.66715968  0.00043468  1
  Ni  Ni25  1  0.83475951  0.83276136  0.16605976  1
  Ni  Ni26  1  0.66715278  0.66566004  0.33379580  1
  Ni  Ni27  1  0.16695438  0.16696943  0.50043578  1
  Ni  Ni28  1  0.99957918  0.00119072  0.66623672  1
  Ni  Ni29  1  0.16706658  0.16841604  0.83367585  1
  Ni  Ni30  1  0.16719141  0.50054460  0.50066041  1
  Ni  Ni31  1  0.00085691  0.33410880  0.66754044  1
  Ni  Ni32  1  0.16694875  0.49873436  0.83366387  1
  Ni  Ni33  1  0.16719224  0.83368423  0.50000803  1
  Ni  Ni34  1  0.99950864  0.66589690  0.66619956  1
  Cr  Cr35  1  0.16688129  0.83403527  0.83359329  1
  Ni  Ni36  1  0.49964662  0.16823484  0.50126499  1
  Ni  Ni37  1  0.33478429  0.00143606  0.66595957  1
  Ni  Ni38  1  0.50056411  0.16721934  0.83366907  1
  Ni  Ni39  1  0.50049348  0.50038464  0.50020949  1
  Ni  Ni40  1  0.33351225  0.33380807  0.66721765  1
  Ni  Ni41  1  0.50080708  0.50013446  0.83369132  1
  Ni  Ni42  1  0.49923120  0.83259962  0.50150019  1
  Ni  Ni43  1  0.33459359  0.66590959  0.66686819  1
  Ni  Ni44  1  0.50203481  0.83381888  0.83367982  1
  Ni  Ni45  1  0.83460602  0.16824415  0.50127262  1
  Ni  Ni46  1  0.66682689  1.00008039  0.66775158  1
  Ni  Ni47  1  0.83357484  0.16725227  0.83396812  1
  Ni  Ni48  1  0.83351247  0.50014575  0.50021090  1
  Ni  Ni49  1  0.66682746  0.33395781  0.66709844  1
  Ni  Ni50  1  0.83345349  0.50022043  0.83366897  1
  Ni  Ni51  1  0.83478665  0.83283014  0.50151150  1
  Ni  Ni52  1  0.66712896  0.66716026  0.66699947  1
  Ni  Ni53  1  0.83225769  0.83371707  0.83367593  1
" 