3859,Ni95Fe2Cr2_6,-239.027980989267, 177.477203050291,Ni95Fe2Cr2,"# generated using pymatgen
 data_Cr2FeNi51
_symmetry_space_group_name_H-M   'P 1'
_cell_length_a   7.46275707
_cell_length_b   7.46275707
_cell_length_c   10.55393226
_cell_angle_alpha   90.00000000
_cell_angle_beta   90.00000000
_cell_angle_gamma   90.00000000
_symmetry_Int_Tables_number   1
_chemical_formula_structural   Cr2FeNi51
_chemical_formula_sum   'Cr2 Fe1 Ni51'
_cell_volume   587.77743742
_cell_formula_units_Z   1
loop_
 _symmetry_equiv_pos_site_id
 _symmetry_equiv_pos_as_xyz
  1  'x, y, z'
loop_
 _atom_site_type_symbol
 _atom_site_label
 _atom_site_symmetry_multiplicity
 _atom_site_fract_x
 _atom_site_fract_y
 _atom_site_fract_z
 _atom_site_occupancy
  Ni  Ni0  1  0.00130773  1.00004753  0.00115153  1
  Ni  Ni1  1  0.16701003  0.16695413  0.16703889  1
  Ni  Ni2  1  0.00135455  0.99930804  0.33278764  1
  Ni  Ni3  1  0.00130773  0.33386073  0.00115153  1
  Ni  Ni4  1  0.16744207  0.50052651  0.16700267  1
  Ni  Ni5  1  0.00135455  0.33460022  0.33278764  1
  Fe  Fe6  1  0.00036956  0.66695413  0.00040227  1
  Ni  Ni7  1  0.16744207  0.83338175  0.16700267  1
  Ni  Ni8  1  1.00009735  0.66695413  0.33306717  1
  Ni  Ni9  1  0.33306082  0.99992016  1.00013273  1
  Ni  Ni10  1  0.50024164  0.16695413  0.16664786  1
  Ni  Ni11  1  0.33337519  1.00023935  0.33346910  1
  Ni  Ni12  1  0.33306082  0.33398810  1.00013273  1
  Ni  Ni13  1  0.49991455  0.50064704  0.16702805  1
  Ni  Ni14  1  0.33337519  0.33366891  0.33346910  1
  Ni  Ni15  1  0.33450424  0.66695413  0.00035074  1
  Ni  Ni16  1  0.49991455  0.83326122  0.16702805  1
  Ni  Ni17  1  0.33368439  0.66695413  0.33360573  1
  Ni  Ni18  1  0.66645583  0.99868063  0.00117713  1
  Ni  Ni19  1  0.83361332  0.16695413  0.16703786  1
  Ni  Ni20  1  0.66613312  0.99896917  0.33239573  1
  Ni  Ni21  1  0.66645583  0.33522763  0.00117713  1
  Ni  Ni22  1  0.83352910  0.50023526  0.16698955  1
  Ni  Ni23  1  0.66613312  0.33493909  0.33239573  1
  Ni  Ni24  1  0.66641069  0.66695413  1.00013290  1
  Ni  Ni25  1  0.83352910  0.83367300  0.16698955  1
  Ni  Ni26  1  0.66708344  0.66695413  0.33382818  1
  Ni  Ni27  1  0.16869929  0.16695413  0.50047785  1
  Ni  Ni28  1  0.00248953  0.99816279  0.66687111  1
  Ni  Ni29  1  0.16848342  0.16695413  0.83336351  1
  Ni  Ni30  1  0.16718830  0.50083031  0.50022056  1
  Ni  Ni31  1  0.00248953  0.33574547  0.66687111  1
  Ni  Ni32  1  0.16741109  0.50061379  0.83369251  1
  Ni  Ni33  1  0.16718830  0.83307795  0.50022056  1
  Ni  Ni34  1  1.00019563  0.66695413  0.66766220  1
  Ni  Ni35  1  0.16741109  0.83329447  0.83369251  1
  Ni  Ni36  1  0.49869817  0.16695413  0.50048399  1
  Ni  Ni37  1  0.33336987  1.00013508  0.66727469  1
  Ni  Ni38  1  0.49862067  0.16695413  0.83373807  1
  Ni  Ni39  1  0.49989582  0.50053167  0.50021526  1
  Ni  Ni40  1  0.33336987  0.33377318  0.66727469  1
  Ni  Ni41  1  0.49990634  0.50066106  0.83360662  1
  Ni  Ni42  1  0.49989582  0.83337659  0.50021526  1
  Ni  Ni43  1  0.33368651  0.66695413  0.66690510  1
  Ni  Ni44  1  0.49990634  0.83324720  0.83360662  1
  Cr  Cr45  1  0.83348419  0.16695413  0.50032473  1
  Ni  Ni46  1  0.66497240  0.99779456  0.66723336  1
  Cr  Cr47  1  0.83329941  0.16695413  0.83314789  1
  Ni  Ni48  1  0.83377718  0.50203532  0.50047950  1
  Ni  Ni49  1  0.66497240  0.33611370  0.66723336  1
  Ni  Ni50  1  0.83359781  0.50185762  0.83347504  1
  Ni  Ni51  1  0.83377718  0.83187294  0.50047950  1
  Ni  Ni52  1  0.66697844  0.66695413  0.66690256  1
  Ni  Ni53  1  0.83359781  0.83205064  0.83347504  1
" 