3043,Ni95Fe2Cr2_11,-239.051409905092, 177.978942789904,Ni95Fe2Cr2,"# generated using pymatgen
 data_Cr2FeNi51
_symmetry_space_group_name_H-M   'P 1'
_cell_length_a   7.46137350
_cell_length_b   7.46137350
_cell_length_c   10.55197560
_cell_angle_alpha   90.00000000
_cell_angle_beta   90.00000000
_cell_angle_gamma   90.00000000
_symmetry_Int_Tables_number   1
_chemical_formula_structural   Cr2FeNi51
_chemical_formula_sum   'Cr2 Fe1 Ni51'
_cell_volume   587.45058270
_cell_formula_units_Z   1
loop_
 _symmetry_equiv_pos_site_id
 _symmetry_equiv_pos_as_xyz
  1  'x, y, z'
loop_
 _atom_site_type_symbol
 _atom_site_label
 _atom_site_symmetry_multiplicity
 _atom_site_fract_x
 _atom_site_fract_y
 _atom_site_fract_z
 _atom_site_occupancy
  Ni  Ni0  1  0.00044815  1.00035845  0.99999796  1
  Ni  Ni1  1  0.16796211  0.16821907  0.16611399  1
  Cr  Cr2  1  0.00076334  0.00039167  0.33358896  1
  Ni  Ni3  1  1.00013859  0.33346928  1.00009108  1
  Ni  Ni4  1  0.16697975  0.50036942  0.16722372  1
  Ni  Ni5  1  1.00013681  0.33510156  0.33422352  1
  Ni  Ni6  1  1.00014083  0.66731161  0.00051898  1
  Ni  Ni7  1  0.16811505  0.83256149  0.16611920  1
  Ni  Ni8  1  1.00013923  0.66570967  0.33378802  1
  Ni  Ni9  1  0.33377234  0.00052292  0.00064130  1
  Ni  Ni10  1  0.50049586  0.16684178  0.16722216  1
  Ni  Ni11  1  0.33541019  0.00052059  0.33363901  1
  Ni  Ni12  1  0.33423972  0.33347369  1.00008753  1
  Ni  Ni13  1  0.50026798  0.50052258  0.16698897  1
  Ni  Ni14  1  0.33427419  0.33350131  0.33398735  1
  Ni  Ni15  1  0.33407847  0.66714508  0.99986636  1
  Ni  Ni16  1  0.50049609  0.83377721  0.16722312  1
  Ni  Ni17  1  0.33410367  0.66712107  0.33421196  1
  Ni  Ni18  1  0.66691587  0.00052778  0.99995740  1
  Ni  Ni19  1  0.83269476  0.16795969  0.16613654  1
  Ni  Ni20  1  0.66536307  0.00052543  0.33433305  1
  Ni  Ni21  1  0.66676223  0.33377839  0.00041953  1
  Ni  Ni22  1  0.83389233  0.50036936  0.16722107  1
  Ni  Ni23  1  0.66672502  0.33381572  0.33364992  1
  Ni  Ni24  1  0.66692352  0.66683985  1.00019753  1
  Ni  Ni25  1  0.83254165  0.83282118  0.16614170  1
  Ni  Ni26  1  0.66689553  0.66680605  0.33387533  1
  Ni  Ni27  1  0.16794665  0.16809099  0.50136111  1
  Ni  Ni28  1  0.00107857  0.00191164  0.66727160  1
  Ni  Ni29  1  0.16698961  0.16706996  0.83360938  1
  Ni  Ni30  1  0.16800822  0.49931898  0.49952165  1
  Ni  Ni31  1  0.99986439  0.33152431  0.66683126  1
  Ni  Ni32  1  0.16795533  0.49932852  0.83440634  1
  Ni  Ni33  1  0.16900859  0.83371042  0.50030149  1
  Cr  Cr34  1  1.00008274  0.66733327  0.66683742  1
  Ni  Ni35  1  0.16805396  0.83471225  0.83467062  1
  Ni  Ni36  1  0.50027816  0.16705849  0.50010740  1
  Ni  Ni37  1  0.33298941  0.00054296  0.66683792  1
  Ni  Ni38  1  0.50024273  0.16704184  0.83386096  1
  Ni  Ni39  1  0.50036596  0.50046022  0.50054016  1
  Ni  Ni40  1  0.33456358  0.33314898  0.66706497  1
  Ni  Ni41  1  0.50036896  0.50045772  0.83360975  1
  Ni  Ni42  1  0.50029686  0.83364088  0.50035998  1
  Ni  Ni43  1  0.33600622  0.66742981  0.66706253  1
  Ni  Ni44  1  0.50026156  0.83365918  0.83360847  1
  Ni  Ni45  1  0.83284739  0.16808362  0.50142630  1
  Fe  Fe46  1  0.66650589  0.00075163  0.66713145  1
  Ni  Ni47  1  0.83387129  0.16715253  0.83358401  1
  Ni  Ni48  1  0.83278341  0.49937975  0.49925376  1
  Ni  Ni49  1  0.66673987  0.33448940  0.66706081  1
  Ni  Ni50  1  0.83283825  0.49938874  0.83467658  1
  Ni  Ni51  1  0.83175780  0.83370549  0.50039995  1
  Ni  Ni52  1  0.66536929  0.66616357  0.66705776  1
  Ni  Ni53  1  0.83278149  0.83461549  0.83461365  1
" 