824,Ni95Fe3Cr0_19,-240.102934137442, 182.99054282597,Ni95Fe3Cr0,"# generated using pymatgen
 data_CrFe2Ni51
_symmetry_space_group_name_H-M   'P 1'
_cell_length_a   7.45588258
_cell_length_b   7.45588258
_cell_length_c   10.54421026
_cell_angle_alpha   90.00000000
_cell_angle_beta   90.00000000
_cell_angle_gamma   90.00000000
_symmetry_Int_Tables_number   1
_chemical_formula_structural   CrFe2Ni51
_chemical_formula_sum   'Cr1 Fe2 Ni51'
_cell_volume   586.15459871
_cell_formula_units_Z   1
loop_
 _symmetry_equiv_pos_site_id
 _symmetry_equiv_pos_as_xyz
  1  'x, y, z'
loop_
 _atom_site_type_symbol
 _atom_site_label
 _atom_site_symmetry_multiplicity
 _atom_site_fract_x
 _atom_site_fract_y
 _atom_site_fract_z
 _atom_site_occupancy
  Ni  Ni0  1  0.99925862  1.00004339  0.00075800  1
  Ni  Ni1  1  0.16596959  0.16780608  0.16828887  1
  Ni  Ni2  1  0.00084805  0.00076012  0.33396012  1
  Fe  Fe3  1  1.00035322  0.33444739  0.00079003  1
  Ni  Ni4  1  0.16704246  0.50136170  0.16727388  1
  Ni  Ni5  1  1.00061337  0.33424536  0.33354673  1
  Ni  Ni6  1  1.00065531  0.66797905  1.00072276  1
  Ni  Ni7  1  0.16721044  0.83313172  0.16834199  1
  Ni  Ni8  1  1.00071032  0.66723096  0.33421065  1
  Cr  Cr9  1  0.33379145  0.00134442  1.00036398  1
  Ni  Ni10  1  0.50223242  0.16788624  0.16836534  1
  Ni  Ni11  1  0.33384713  0.00100854  0.33408123  1
  Ni  Ni12  1  0.33481485  0.33566202  0.00098788  1
  Ni  Ni13  1  0.50118699  0.50129612  0.16731854  1
  Ni  Ni14  1  0.33415416  0.33406326  0.33368477  1
  Ni  Ni15  1  0.33358244  0.66531925  1.00068335  1
  Ni  Ni16  1  0.50102552  0.83307025  0.16806190  1
  Ni  Ni17  1  0.33384493  0.66716717  0.33366152  1
  Ni  Ni18  1  0.66951602  0.00129988  0.00076387  1
  Ni  Ni19  1  0.83399512  0.16796588  0.16727625  1
  Ni  Ni20  1  0.66757230  0.00106455  0.33360476  1
  Ni  Ni21  1  0.66673574  0.33424539  1.00067359  1
  Ni  Ni22  1  0.83397583  0.50002924  0.16753201  1
  Ni  Ni23  1  0.66747818  0.33424026  0.33422696  1
  Ni  Ni24  1  0.66804917  0.66664416  1.00072790  1
  Fe  Fe25  1  0.83411931  0.83389551  0.16745649  1
  Ni  Ni26  1  0.66771000  0.66692725  0.33385458  1
  Ni  Ni27  1  0.16703066  0.16731038  0.50045560  1
  Ni  Ni28  1  1.00064771  1.00055163  0.66758038  1
  Ni  Ni29  1  0.16618344  0.16815758  0.83347684  1
  Ni  Ni30  1  0.16719364  0.50086701  0.50045636  1
  Ni  Ni31  1  1.00070947  0.33424030  0.66802446  1
  Ni  Ni32  1  0.16731254  0.50105267  0.83454278  1
  Ni  Ni33  1  0.16758704  0.83406815  0.50079435  1
  Ni  Ni34  1  1.00047179  0.66746196  0.66734329  1
  Ni  Ni35  1  0.16645758  0.83308234  0.83306218  1
  Ni  Ni36  1  0.50100788  0.16706562  0.50045569  1
  Ni  Ni37  1  0.33383876  0.00111154  0.66749886  1
  Ni  Ni38  1  0.50200597  0.16821255  0.83337708  1
  Ni  Ni39  1  0.50084484  0.50111187  0.50045644  1
  Ni  Ni40  1  0.33415380  0.33405617  0.66758155  1
  Ni  Ni41  1  0.50090482  0.50101126  0.83447516  1
  Ni  Ni42  1  0.50069579  0.83406825  0.50079435  1
  Ni  Ni43  1  0.33383652  0.66707501  0.66792217  1
  Ni  Ni44  1  0.50174358  0.83302123  0.83334481  1
  Ni  Ni45  1  0.83420793  0.16746164  0.50079572  1
  Ni  Ni46  1  0.66776092  0.00086884  0.66792482  1
  Ni  Ni47  1  0.83400893  0.16733948  0.83417988  1
  Ni  Ni48  1  0.83420772  0.50055764  0.50079311  1
  Ni  Ni49  1  0.66737715  0.33423519  0.66734073  1
  Ni  Ni50  1  0.83399012  0.50077056  0.83393031  1
  Ni  Ni51  1  0.83396374  0.83422965  0.50010836  1
  Ni  Ni52  1  0.66793682  0.66714546  0.66768842  1
  Ni  Ni53  1  0.83405984  0.83416280  0.83481030  1
" 