8258,Ni95Fe3Cr1_6,-239.036123622171, 177.628728422206,Ni95Fe3Cr1,"# generated using pymatgen
 data_Cr2FeNi51
_symmetry_space_group_name_H-M   'P 1'
_cell_length_a   7.46181355
_cell_length_b   7.46181355
_cell_length_c   10.55259793
_cell_angle_alpha   90.00000000
_cell_angle_beta   90.00000000
_cell_angle_gamma   90.00000000
_symmetry_Int_Tables_number   1
_chemical_formula_structural   Cr2FeNi51
_chemical_formula_sum   'Cr2 Fe1 Ni51'
_cell_volume   587.55452767
_cell_formula_units_Z   1
loop_
 _symmetry_equiv_pos_site_id
 _symmetry_equiv_pos_as_xyz
  1  'x, y, z'
loop_
 _atom_site_type_symbol
 _atom_site_label
 _atom_site_symmetry_multiplicity
 _atom_site_fract_x
 _atom_site_fract_y
 _atom_site_fract_z
 _atom_site_occupancy
  Ni  Ni0  1  0.00072306  0.00039668  0.99988712  1
  Ni  Ni1  1  0.16734292  0.16704710  0.16687658  1
  Ni  Ni2  1  0.00061122  0.00041056  0.33401978  1
  Ni  Ni3  1  0.00295586  0.33261227  0.00133889  1
  Ni  Ni4  1  0.16717456  0.50014983  0.16664907  1
  Ni  Ni5  1  1.00031210  0.33366590  0.33344677  1
  Ni  Ni6  1  0.00187217  0.66804797  0.00099152  1
  Ni  Ni7  1  0.16706810  0.83386488  0.16711752  1
  Ni  Ni8  1  0.00078813  0.66696787  0.33401738  1
  Ni  Ni9  1  0.33350837  1.00010088  0.00046579  1
  Ni  Ni10  1  0.49899356  0.16594697  0.16793673  1
  Ni  Ni11  1  0.33349684  1.00010074  0.33368963  1
  Ni  Ni12  1  0.33211321  0.33374002  0.99952621  1
  Ni  Ni13  1  0.49911352  0.50127119  0.16774791  1
  Ni  Ni14  1  0.33367880  0.33384675  0.33415066  1
  Ni  Ni15  1  0.33348334  0.66723166  1.00024547  1
  Ni  Ni16  1  0.50036475  0.83387805  0.16688190  1
  Ni  Ni17  1  0.33350160  0.66710121  0.33368189  1
  Ni  Ni18  1  0.66682787  0.99896267  0.99988386  1
  Ni  Ni19  1  0.83477298  0.16576568  0.16777771  1
  Ni  Ni20  1  0.66693860  0.00059529  0.33376805  1
  Cr  Cr21  1  0.66620518  0.33246924  0.00175771  1
  Ni  Ni22  1  0.83477158  0.50156985  0.16819588  1
  Ni  Ni23  1  0.66707022  0.33366752  0.33386185  1
  Ni  Ni24  1  0.66567553  0.66942293  0.00099844  1
  Ni  Ni25  1  0.83362592  0.83370624  0.16664715  1
  Ni  Ni26  1  0.66675606  0.66679599  0.33378059  1
  Ni  Ni27  1  0.16703475  0.16684429  0.50021492  1
  Ni  Ni28  1  0.00101412  0.00070688  0.66715198  1
  Ni  Ni29  1  0.16715506  0.16683001  0.83383813  1
  Ni  Ni30  1  0.16689221  0.50031787  0.50048359  1
  Ni  Ni31  1  0.00056298  0.33267578  0.66633626  1
  Ni  Ni32  1  0.16862604  0.50031020  0.83379807  1
  Ni  Ni33  1  0.16719564  0.83387897  0.50024043  1
  Ni  Ni34  1  0.00207567  0.66765505  0.66612527  1
  Ni  Ni35  1  0.16717485  0.83385648  0.83369497  1
  Ni  Ni36  1  0.50029438  0.16669605  0.50024623  1
  Ni  Ni37  1  0.33351184  0.99933006  0.66692532  1
  Ni  Ni38  1  0.49915521  0.16580380  0.83277310  1
  Ni  Ni39  1  0.50042392  0.50047162  0.50049993  1
  Fe  Fe40  1  0.33345633  0.33346581  0.66680328  1
  Ni  Ni41  1  0.49774398  0.50134813  0.83272434  1
  Ni  Ni42  1  0.50034337  0.83387430  0.50024364  1
  Ni  Ni43  1  0.33349824  0.66785199  0.66716002  1
  Ni  Ni44  1  0.50023076  0.83388211  0.83391688  1
  Ni  Ni45  1  0.83370924  0.16697576  0.50047001  1
  Ni  Ni46  1  0.66652946  0.00086014  0.66737119  1
  Ni  Ni47  1  0.83470263  0.16444880  0.83284844  1
  Ni  Ni48  1  0.83370761  0.50037510  0.50005060  1
  Ni  Ni49  1  0.66671336  0.33267586  0.66590784  1
  Cr  Cr50  1  0.83484261  0.50185625  0.83305958  1
  Ni  Ni51  1  0.83352054  0.83368753  0.50083253  1
  Ni  Ni52  1  0.66544702  0.66755158  0.66630509  1
  Ni  Ni53  1  0.83363114  0.83537269  0.83357531  1
" 