7243,Ni95Fe3Cr0_16,-240.155611781112, 183.33862592949,Ni95Fe3Cr0,"# generated using pymatgen
 data_CrFe2Ni51
_symmetry_space_group_name_H-M   'P 1'
_cell_length_a   7.45593735
_cell_length_b   7.45593735
_cell_length_c   10.54428772
_cell_angle_alpha   90.00000000
_cell_angle_beta   90.00000000
_cell_angle_gamma   90.00000000
_symmetry_Int_Tables_number   1
_chemical_formula_structural   CrFe2Ni51
_chemical_formula_sum   'Cr1 Fe2 Ni51'
_cell_volume   586.16751778
_cell_formula_units_Z   1
loop_
 _symmetry_equiv_pos_site_id
 _symmetry_equiv_pos_as_xyz
  1  'x, y, z'
loop_
 _atom_site_type_symbol
 _atom_site_label
 _atom_site_symmetry_multiplicity
 _atom_site_fract_x
 _atom_site_fract_y
 _atom_site_fract_z
 _atom_site_occupancy
  Ni  Ni0  1  0.00101529  0.00094829  1.00039390  1
  Ni  Ni1  1  0.16780761  0.16758112  0.16732959  1
  Ni  Ni2  1  0.00202703  0.00125110  0.33349051  1
  Ni  Ni3  1  1.00052789  0.33407839  0.00145491  1
  Ni  Ni4  1  0.16780761  0.50057567  0.16732959  1
  Fe  Fe5  1  0.00098927  0.33407839  0.33402806  1
  Ni  Ni6  1  0.00101529  0.66720850  1.00039390  1
  Ni  Ni7  1  0.16728852  0.83407839  0.16754474  1
  Ni  Ni8  1  0.00202703  0.66690569  0.33349051  1
  Ni  Ni9  1  0.33382361  0.00077605  0.00109807  1
  Ni  Ni10  1  0.50045125  0.16768108  0.16731322  1
  Ni  Ni11  1  0.33352560  0.00113832  0.33420366  1
  Ni  Ni12  1  0.33413797  0.33407839  1.00004204  1
  Ni  Ni13  1  0.50045125  0.50047571  0.16731322  1
  Ni  Ni14  1  0.33495840  0.33407839  0.33468247  1
  Ni  Ni15  1  0.33382361  0.66738074  0.00109807  1
  Ni  Ni16  1  0.50088978  0.83407839  0.16787745  1
  Ni  Ni17  1  0.33352560  0.66701847  0.33420366  1
  Ni  Ni18  1  0.66739674  0.00126953  1.00074489  1
  Ni  Ni19  1  0.83400182  0.16719186  0.16759952  1
  Ni  Ni20  1  0.66665340  0.00260336  0.33346787  1
  Ni  Ni21  1  0.66756660  0.33407839  0.00074648  1
  Ni  Ni22  1  0.83400182  0.50096493  0.16759952  1
  Ni  Ni23  1  0.66684636  0.33407839  0.33420418  1
  Ni  Ni24  1  0.66739674  0.66688726  1.00074489  1
  Ni  Ni25  1  0.83406328  0.83407839  0.16710431  1
  Ni  Ni26  1  0.66665340  0.66555343  0.33346787  1
  Ni  Ni27  1  0.16757848  0.16742027  0.50073344  1
  Ni  Ni28  1  0.00236230  0.00229188  0.66840410  1
  Ni  Ni29  1  0.16735912  0.16762023  0.83412902  1
  Ni  Ni30  1  0.16757848  0.50073652  0.50073344  1
  Ni  Ni31  1  0.99981619  0.33407839  0.66656523  1
  Ni  Ni32  1  0.16735912  0.50053656  0.83412902  1
  Ni  Ni33  1  0.16899601  0.83407839  0.50072867  1
  Ni  Ni34  1  0.00236230  0.66586491  0.66840410  1
  Ni  Ni35  1  0.16749039  0.83407839  0.83393538  1
  Ni  Ni36  1  0.50064920  0.16748222  0.50079263  1
  Ni  Ni37  1  0.33382658  1.00009653  0.66691818  1
  Ni  Ni38  1  0.50065592  0.16737686  0.83412241  1
  Ni  Ni39  1  0.50064920  0.50067457  0.50079263  1
  Fe  Fe40  1  0.33402354  0.33407839  0.66747018  1
  Ni  Ni41  1  0.50065592  0.50077993  0.83412241  1
  Ni  Ni42  1  0.49907145  0.83407839  0.50040973  1
  Ni  Ni43  1  0.33382658  0.66806026  0.66691818  1
  Ni  Ni44  1  0.50079209  0.83407839  0.83393130  1
  Ni  Ni45  1  0.83404649  0.16899855  0.50064247  1
  Ni  Ni46  1  0.66602840  0.00264129  0.66807038  1
  Ni  Ni47  1  0.83420821  0.16749607  0.83393262  1
  Ni  Ni48  1  0.83404649  0.49915824  0.50064247  1
  Ni  Ni49  1  0.66821746  0.33407839  0.66728986  1
  Ni  Ni50  1  0.83420821  0.50066072  0.83393262  1
  Cr  Cr51  1  0.83376912  0.83407839  0.50139171  1
  Ni  Ni52  1  0.66602840  0.66551550  0.66807038  1
  Ni  Ni53  1  0.83395488  0.83407839  0.83405363  1
" 