5912,Ni95Fe2Cr2_5,-239.004787803729, 177.335325814717,Ni95Fe2Cr2,"# generated using pymatgen
 data_Cr2FeNi51
_symmetry_space_group_name_H-M   'P 1'
_cell_length_a   7.46154772
_cell_length_b   7.46154772
_cell_length_c   10.55222198
_cell_angle_alpha   90.00000000
_cell_angle_beta   90.00000000
_cell_angle_gamma   90.00000000
_symmetry_Int_Tables_number   1
_chemical_formula_structural   Cr2FeNi51
_chemical_formula_sum   'Cr2 Fe1 Ni51'
_cell_volume   587.49173319
_cell_formula_units_Z   1
loop_
 _symmetry_equiv_pos_site_id
 _symmetry_equiv_pos_as_xyz
  1  'x, y, z'
loop_
 _atom_site_type_symbol
 _atom_site_label
 _atom_site_symmetry_multiplicity
 _atom_site_fract_x
 _atom_site_fract_y
 _atom_site_fract_z
 _atom_site_occupancy
  Ni  Ni0  1  0.00137664  0.00131647  0.00139457  1
  Fe  Fe1  1  0.16725263  0.16589214  0.16716761  1
  Ni  Ni2  1  0.00039268  1.00031146  0.33354593  1
  Ni  Ni3  1  0.99919148  0.33278651  0.99927408  1
  Cr  Cr4  1  0.16755142  0.50074893  0.16741571  1
  Ni  Ni5  1  0.99905720  0.33276836  0.33468681  1
  Ni  Ni6  1  1.00034682  0.66697331  1.00028777  1
  Ni  Ni7  1  0.16702463  0.83454310  0.16683443  1
  Ni  Ni8  1  0.99936355  0.66794021  0.33464756  1
  Ni  Ni9  1  0.33369599  1.00022243  1.00035626  1
  Ni  Ni10  1  0.50118953  0.16700922  0.16705990  1
  Ni  Ni11  1  0.33369903  1.00014299  0.33355216  1
  Ni  Ni12  1  0.33482975  0.33278805  0.99947888  1
  Ni  Ni13  1  0.50129769  0.49965953  0.16705582  1
  Ni  Ni14  1  0.33490298  0.33274721  0.33472382  1
  Ni  Ni15  1  0.33472026  0.66799399  0.99927751  1
  Ni  Ni16  1  0.50004154  0.83438647  0.16683573  1
  Ni  Ni17  1  0.33474871  0.66813038  0.33467810  1
  Ni  Ni18  1  0.66605487  0.00134700  0.00110094  1
  Ni  Ni19  1  0.83276050  0.16683581  0.16683111  1
  Ni  Ni20  1  0.66701899  1.00036495  0.33383651  1
  Ni  Ni21  1  0.66709391  0.33377142  1.00030604  1
  Ni  Ni22  1  0.83275129  0.49981802  0.16683935  1
  Ni  Ni23  1  0.66717046  0.33378218  0.33359216  1
  Ni  Ni24  1  0.66601506  0.66597294  0.00164590  1
  Ni  Ni25  1  0.83403317  0.83438674  0.16725883  1
  Ni  Ni26  1  0.66701144  0.66694845  0.33328675  1
  Ni  Ni27  1  0.16718196  0.16719988  0.49950297  1
  Ni  Ni28  1  0.00168886  0.00154173  0.66611756  1
  Ni  Ni29  1  0.16721040  0.16722240  0.83454105  1
  Ni  Ni30  1  0.16718623  0.50026342  0.50058688  1
  Ni  Ni31  1  0.00040615  0.33354885  0.66720632  1
  Ni  Ni32  1  0.16721335  0.50023825  0.83345065  1
  Ni  Ni33  1  0.16702232  0.83360898  0.50041759  1
  Ni  Ni34  1  0.00126416  0.66602288  0.66614039  1
  Ni  Ni35  1  0.16852322  0.83360607  0.83384523  1
  Ni  Ni36  1  0.50043100  0.16703701  0.50040704  1
  Ni  Ni37  1  0.33343616  0.00042016  0.66720879  1
  Ni  Ni38  1  0.50041341  0.16705665  0.83363795  1
  Ni  Ni39  1  0.49996026  0.49998280  0.49985030  1
  Ni  Ni40  1  0.33358891  0.33355946  0.66697571  1
  Ni  Ni41  1  0.49993093  0.49994756  0.83419857  1
  Ni  Ni42  1  0.50029065  0.83409645  0.50030098  1
  Ni  Ni43  1  0.33383945  0.66712450  0.66720572  1
  Ni  Ni44  1  0.49862697  0.83410630  0.83397370  1
  Ni  Ni45  1  0.83349300  0.16686889  0.50063326  1
  Ni  Ni46  1  0.66595156  0.00133566  0.66608104  1
  Ni  Ni47  1  0.83348185  0.16850129  0.83363628  1
  Ni  Ni48  1  0.83395755  0.50013644  0.50007012  1
  Ni  Ni49  1  0.66711117  0.33395149  0.66720809  1
  Ni  Ni50  1  0.83395919  0.49860286  0.83419870  1
  Ni  Ni51  1  0.83379259  0.83409992  0.49987786  1
  Ni  Ni52  1  0.66597226  0.66582591  0.66610051  1
  Cr  Cr53  1  0.83337582  0.83440758  0.83355815  1
" 