336,Ni95Fe3Cr0_14,-240.192861461716, 183.243665432772,Ni95Fe3Cr0,"# generated using pymatgen
 data_CrFe2Ni51
_symmetry_space_group_name_H-M   'P 1'
_cell_length_a   7.45596286
_cell_length_b   7.45596286
_cell_length_c   10.54432379
_cell_angle_alpha   90.00000000
_cell_angle_beta   90.00000000
_cell_angle_gamma   90.00000000
_symmetry_Int_Tables_number   1
_chemical_formula_structural   CrFe2Ni51
_chemical_formula_sum   'Cr1 Fe2 Ni51'
_cell_volume   586.17353348
_cell_formula_units_Z   1
loop_
 _symmetry_equiv_pos_site_id
 _symmetry_equiv_pos_as_xyz
  1  'x, y, z'
loop_
 _atom_site_type_symbol
 _atom_site_label
 _atom_site_symmetry_multiplicity
 _atom_site_fract_x
 _atom_site_fract_y
 _atom_site_fract_z
 _atom_site_occupancy
  Ni  Ni0  1  0.00075307  0.00090440  1.00000159  1
  Ni  Ni1  1  0.16673383  0.16781312  0.16762203  1
  Ni  Ni2  1  0.00075067  0.00080108  0.33498208  1
  Ni  Ni3  1  0.00082870  0.33390385  0.00076293  1
  Ni  Ni4  1  0.16818720  0.50092062  0.16737522  1
  Ni  Ni5  1  0.00081851  0.33402000  0.33420967  1
  Ni  Ni6  1  0.00083727  0.66743178  0.00075161  1
  Ni  Ni7  1  0.16656217  0.83350519  0.16738418  1
  Ni  Ni8  1  0.00081980  0.66740822  0.33398170  1
  Ni  Ni9  1  0.33413233  1.00072814  0.00105316  1
  Ni  Ni10  1  0.50128088  0.16807915  0.16718854  1
  Ni  Ni11  1  0.33307878  0.99967579  0.33284415  1
  Ni  Ni12  1  0.33381791  0.33383007  1.00036293  1
  Ni  Ni13  1  0.49996144  0.50073499  0.16762816  1
  Ni  Ni14  1  0.33278500  0.33488204  0.33353406  1
  Ni  Ni15  1  0.33399770  0.66767101  1.00036360  1
  Ni  Ni16  1  0.50128414  0.83340601  0.16761922  1
  Ni  Ni17  1  0.33389266  0.66766703  0.33463206  1
  Ni  Ni18  1  0.66733911  1.00072630  1.00071113  1
  Ni  Ni19  1  0.83420851  0.16648905  0.16762697  1
  Ni  Ni20  1  0.66836970  0.99971628  0.33321032  1
  Ni  Ni21  1  0.66759544  0.33376026  1.00041233  1
  Fe  Fe22  1  0.83415891  0.50096754  0.16727465  1
  Ni  Ni23  1  0.66868881  0.33485344  0.33344282  1
  Ni  Ni24  1  0.66740759  0.66774954  1.00040412  1
  Ni  Ni25  1  0.83439072  0.83486311  0.16737818  1
  Ni  Ni26  1  0.66751322  0.66773824  0.33458293  1
  Ni  Ni27  1  0.16558386  0.16769213  0.50046358  1
  Fe  Fe28  1  0.00088261  1.00053536  0.66750495  1
  Ni  Ni29  1  0.16724127  0.16774883  0.83421736  1
  Ni  Ni30  1  0.16732813  0.50091909  0.50071296  1
  Ni  Ni31  1  1.00060249  0.33488426  0.66723724  1
  Ni  Ni32  1  0.16732777  0.50092222  0.83413456  1
  Ni  Ni33  1  0.16703818  0.83357470  0.50042626  1
  Ni  Ni34  1  1.00060392  0.66641566  0.66747388  1
  Ni  Ni35  1  0.16711588  0.83354485  0.83446653  1
  Cr  Cr36  1  0.50093226  0.16791127  0.50009455  1
  Ni  Ni37  1  0.33381684  0.99971233  0.66830084  1
  Ni  Ni38  1  0.50098461  0.16767156  0.83469128  1
  Ni  Ni39  1  0.50066678  0.50236092  0.50105990  1
  Ni  Ni40  1  0.33248895  0.33445117  0.66831582  1
  Ni  Ni41  1  0.50067442  0.50074436  0.83355974  1
  Ni  Ni42  1  0.50098885  0.83227142  0.50036766  1
  Ni  Ni43  1  0.33359495  0.66808349  0.66724137  1
  Ni  Ni44  1  0.50098299  0.83380276  0.83426090  1
  Ni  Ni45  1  0.83561731  0.16735431  0.50083035  1
  Ni  Ni46  1  0.66752881  0.99972145  0.66829080  1
  Ni  Ni47  1  0.83399386  0.16742409  0.83385590  1
  Ni  Ni48  1  0.83423818  0.50091948  0.50000321  1
  Ni  Ni49  1  0.66912643  0.33471230  0.66830801  1
  Ni  Ni50  1  0.83423356  0.50091960  0.83484073  1
  Ni  Ni51  1  0.83419540  0.83391273  0.50078969  1
  Ni  Ni52  1  0.66802990  0.66781418  0.66724058  1
  Ni  Ni53  1  0.83412853  0.83387005  0.83411180  1
" 