7859,Ni95Fe3Cr1_9,-239.046465602332, 178.269921151151,Ni95Fe3Cr1,"# generated using pymatgen
 data_Cr2FeNi51
_symmetry_space_group_name_H-M   'P 1'
_cell_length_a   7.46157627
_cell_length_b   7.46157627
_cell_length_c   10.55226235
_cell_angle_alpha   90.00000000
_cell_angle_beta   90.00000000
_cell_angle_gamma   90.00000000
_symmetry_Int_Tables_number   1
_chemical_formula_structural   Cr2FeNi51
_chemical_formula_sum   'Cr2 Fe1 Ni51'
_cell_volume   587.49847704
_cell_formula_units_Z   1
loop_
 _symmetry_equiv_pos_site_id
 _symmetry_equiv_pos_as_xyz
  1  'x, y, z'
loop_
 _atom_site_type_symbol
 _atom_site_label
 _atom_site_symmetry_multiplicity
 _atom_site_fract_x
 _atom_site_fract_y
 _atom_site_fract_z
 _atom_site_occupancy
  Ni  Ni0  1  0.00055812  1.00018004  1.00023647  1
  Ni  Ni1  1  0.16716651  0.16701508  0.16662305  1
  Ni  Ni2  1  0.00060330  1.00021566  0.33367775  1
  Ni  Ni3  1  0.00122420  0.33232866  0.00103300  1
  Ni  Ni4  1  0.16691551  0.50028858  0.16707375  1
  Ni  Ni5  1  0.00059158  0.33343107  0.33379600  1
  Ni  Ni6  1  0.99970568  0.66858890  0.00103120  1
  Ni  Ni7  1  0.16716520  0.83380474  0.16687210  1
  Ni  Ni8  1  0.00075397  0.66745221  0.33402142  1
  Ni  Ni9  1  0.33343043  1.00017951  0.99951442  1
  Ni  Ni10  1  0.49930174  0.16566685  0.16799998  1
  Ni  Ni11  1  0.33340102  1.00021799  0.33439435  1
  Ni  Ni12  1  0.33311086  0.33267810  0.00136180  1
  Ni  Ni13  1  0.49937713  0.50144977  0.16777009  1
  Ni  Ni14  1  0.33373453  0.33374576  0.33344812  1
  Ni  Ni15  1  0.33460055  0.66824109  0.00135795  1
  Ni  Ni16  1  0.50047235  0.83398274  0.16687196  1
  Ni  Ni17  1  0.33356352  0.66713744  0.33368015  1
  Ni  Ni18  1  0.66710519  0.99869866  0.00047653  1
  Ni  Ni19  1  0.83464088  0.16590839  0.16801052  1
  Ni  Ni20  1  0.66709254  0.00038482  0.33345100  1
  Cr  Cr21  1  0.66684553  0.33359129  0.99994417  1
  Ni  Ni22  1  0.83482171  0.50145789  0.16777570  1
  Ni  Ni23  1  0.66677877  0.33359640  0.33424382  1
  Ni  Ni24  1  0.66677599  0.66889404  0.99987351  1
  Ni  Ni25  1  0.83346075  0.83373314  0.16687527  1
  Ni  Ni26  1  0.66678029  0.66712134  0.33379455  1
  Ni  Ni27  1  0.16692861  0.16730538  0.50052462  1
  Ni  Ni28  1  0.99982689  1.00021490  0.66719086  1
  Ni  Ni29  1  0.16699935  0.16547839  0.83385992  1
  Ni  Ni30  1  0.16702293  0.50021729  0.50005978  1
  Ni  Ni31  1  0.99984604  0.33207973  0.66631347  1
  Cr  Cr32  1  0.16673077  0.50029572  0.83427374  1
  Ni  Ni33  1  0.16692019  0.83357209  0.50051410  1
  Ni  Ni34  1  1.00000413  0.66881136  0.66608348  1
  Ni  Ni35  1  0.16699667  0.83535044  0.83362085  1
  Ni  Ni36  1  0.50062403  0.16699311  0.50027963  1
  Fe  Fe37  1  0.33367626  1.00015912  0.66681902  1
  Ni  Ni38  1  0.49953898  0.16582654  0.83276669  1
  Ni  Ni39  1  0.50035062  0.50038312  0.50050332  1
  Ni  Ni40  1  0.33476057  0.33343766  0.66634164  1
  Ni  Ni41  1  0.50096288  0.50140415  0.83284280  1
  Ni  Ni42  1  0.50079747  0.83371555  0.50027190  1
  Ni  Ni43  1  0.33459268  0.66741980  0.66610125  1
  Ni  Ni44  1  0.50070995  0.83381897  0.83390370  1
  Ni  Ni45  1  0.83355686  0.16687750  0.50027900  1
  Ni  Ni46  1  0.66788787  0.00039113  0.66719143  1
  Ni  Ni47  1  0.83454925  0.16581086  0.83285723  1
  Ni  Ni48  1  0.83373276  0.50038133  0.50083105  1
  Ni  Ni49  1  0.66647237  0.33321464  0.66698683  1
  Ni  Ni50  1  0.83302927  0.50144195  0.83250593  1
  Ni  Ni51  1  0.83339141  0.83383972  0.50028004  1
  Ni  Ni52  1  0.66646944  0.66749321  0.66743195  1
  Ni  Ni53  1  0.83344216  0.83387444  0.83395540  1
" 