8276,Ni95Fe2Cr2_3,-239.007528098208, 177.650583615896,Ni95Fe2Cr2,"# generated using pymatgen
 data_Cr2FeNi51
_symmetry_space_group_name_H-M   'P 1'
_cell_length_a   7.46188778
_cell_length_b   7.46188778
_cell_length_c   10.55270290
_cell_angle_alpha   90.00000000
_cell_angle_beta   90.00000000
_cell_angle_gamma   90.00000000
_symmetry_Int_Tables_number   1
_chemical_formula_structural   Cr2FeNi51
_chemical_formula_sum   'Cr2 Fe1 Ni51'
_cell_volume   587.57206229
_cell_formula_units_Z   1
loop_
 _symmetry_equiv_pos_site_id
 _symmetry_equiv_pos_as_xyz
  1  'x, y, z'
loop_
 _atom_site_type_symbol
 _atom_site_label
 _atom_site_symmetry_multiplicity
 _atom_site_fract_x
 _atom_site_fract_y
 _atom_site_fract_z
 _atom_site_occupancy
  Ni  Ni0  1  1.00004331  1.00032207  1.00011556  1
  Ni  Ni1  1  0.16602574  0.16579113  0.16601808  1
  Ni  Ni2  1  1.00022060  1.00010404  0.33386780  1
  Ni  Ni3  1  0.00038744  0.33370228  0.00058286  1
  Ni  Ni4  1  0.16564200  0.50121943  0.16632400  1
  Ni  Ni5  1  0.99889039  0.33386856  0.33367688  1
  Ni  Ni6  1  0.00046282  0.66701411  1.00034410  1
  Ni  Ni7  1  0.16684159  0.83406397  0.16748498  1
  Ni  Ni8  1  0.00035279  0.66706137  0.33357334  1
  Ni  Ni9  1  0.33369072  1.00023805  1.00034425  1
  Ni  Ni10  1  0.50130308  0.16598610  0.16606329  1
  Ni  Ni11  1  0.33370414  0.99887450  0.33381010  1
  Ni  Ni12  1  0.33352158  0.33395532  1.00015401  1
  Ni  Ni13  1  0.50183603  0.50119144  0.16635187  1
  Cr  Cr14  1  0.33318494  0.33451325  0.33289220  1
  Ni  Ni15  1  0.33352224  0.66683539  0.00058468  1
  Ni  Ni16  1  0.50050159  0.83389663  0.16747983  1
  Ni  Ni17  1  0.33351781  0.66854573  0.33390311  1
  Ni  Ni18  1  0.66730091  1.00031957  0.00054194  1
  Ni  Ni19  1  0.83370562  0.16710313  0.16781019  1
  Ni  Ni20  1  0.66712848  1.00009277  0.33343028  1
  Ni  Ni21  1  0.66713153  0.33353856  0.00035095  1
  Ni  Ni22  1  0.83353890  0.50036800  0.16711457  1
  Ni  Ni23  1  0.66849365  0.33370775  0.33389838  1
  Ni  Ni24  1  0.66705044  0.66718746  1.00010889  1
  Ni  Ni25  1  0.83369423  0.83358954  0.16690145  1
  Ni  Ni26  1  0.66716945  0.66721966  0.33380306  1
  Ni  Ni27  1  0.16678781  0.16597977  0.50134702  1
  Ni  Ni28  1  0.00195553  1.00005055  0.66712242  1
  Ni  Ni29  1  0.16705433  0.16692434  0.83354406  1
  Ni  Ni30  1  0.16547873  0.50084081  0.50116577  1
  Ni  Ni31  1  0.00062282  0.33395132  0.66685521  1
  Ni  Ni32  1  0.16675373  0.50011789  0.83344415  1
  Ni  Ni33  1  0.16653183  0.83427958  0.50034716  1
  Ni  Ni34  1  0.00036978  0.66703955  0.66709958  1
  Ni  Ni35  1  0.16691118  0.83399716  0.83321022  1
  Ni  Ni36  1  0.49951362  0.16704444  0.50031594  1
  Ni  Ni37  1  0.33224715  1.00034387  0.66687975  1
  Ni  Ni38  1  0.49930186  0.16803622  0.83457795  1
  Ni  Ni39  1  0.50193714  0.50082347  0.50136921  1
  Ni  Ni40  1  0.33353401  0.33386620  0.66730807  1
  Ni  Ni41  1  0.50067880  0.50012836  0.83321185  1
  Ni  Ni42  1  0.49984303  0.83321419  0.49931308  1
  Ni  Ni43  1  0.33350127  0.66682799  0.66656336  1
  Ni  Ni44  1  0.49935582  0.83284106  0.83433252  1
  Fe  Fe45  1  0.83458909  0.16772038  0.49962945  1
  Cr  Cr46  1  0.66733220  0.99960351  0.66756545  1
  Ni  Ni47  1  0.83473562  0.16822021  0.83392203  1
  Ni  Ni48  1  0.83361574  0.50101359  0.50034528  1
  Ni  Ni49  1  0.66690051  0.33528326  0.66687909  1
  Ni  Ni50  1  0.83360497  0.50027395  0.83354295  1
  Ni  Ni51  1  0.83470260  0.83176267  0.49951619  1
  Ni  Ni52  1  0.66717227  0.66561340  0.66709374  1
  Ni  Ni53  1  0.83477682  0.83256269  0.83463809  1
" 