2118,Ni95Fe3Cr1_13,-239.065190585857, 178.212101660717,Ni95Fe3Cr1,"# generated using pymatgen
 data_Cr2FeNi51
_symmetry_space_group_name_H-M   'P 1'
_cell_length_a   7.46129469
_cell_length_b   7.46129469
_cell_length_c   10.55186415
_cell_angle_alpha   90.00000000
_cell_angle_beta   90.00000000
_cell_angle_gamma   90.00000000
_symmetry_Int_Tables_number   1
_chemical_formula_structural   Cr2FeNi51
_chemical_formula_sum   'Cr2 Fe1 Ni51'
_cell_volume   587.43196875
_cell_formula_units_Z   1
loop_
 _symmetry_equiv_pos_site_id
 _symmetry_equiv_pos_as_xyz
  1  'x, y, z'
loop_
 _atom_site_type_symbol
 _atom_site_label
 _atom_site_symmetry_multiplicity
 _atom_site_fract_x
 _atom_site_fract_y
 _atom_site_fract_z
 _atom_site_occupancy
  Ni  Ni0  1  0.99930152  0.00141132  0.99967428  1
  Ni  Ni1  1  0.16813610  0.16761030  0.16543533  1
  Ni  Ni2  1  0.99942155  0.99992126  0.33467864  1
  Ni  Ni3  1  1.00038395  0.33380493  1.00035906  1
  Ni  Ni4  1  0.16813433  0.49981518  0.16617441  1
  Cr  Cr5  1  0.00061354  0.33357575  0.33353837  1
  Ni  Ni6  1  0.99929865  0.66600061  0.99973898  1
  Cr  Cr7  1  0.16697274  0.83332467  0.16758284  1
  Ni  Ni8  1  0.99914131  0.66762478  0.33470150  1
  Ni  Ni9  1  0.33496822  0.00124823  0.99943447  1
  Ni  Ni10  1  0.50064413  0.16731975  0.16727672  1
  Ni  Ni11  1  0.33486544  0.00142736  0.33467303  1
  Ni  Ni12  1  0.33369924  0.33381035  0.00081388  1
  Ni  Ni13  1  0.50031040  0.49986529  0.16692288  1
  Ni  Ni14  1  0.33517147  0.33359437  0.33353783  1
  Ni  Ni15  1  0.33497477  0.66615675  0.99950250  1
  Ni  Ni16  1  0.50181129  0.83397670  0.16667685  1
  Ni  Ni17  1  0.33514920  0.66612292  0.33469743  1
  Ni  Ni18  1  0.66689529  1.00013851  0.00061209  1
  Ni  Ni19  1  0.83236813  0.16616195  0.16616242  1
  Ni  Ni20  1  0.66686332  0.99999464  0.33353669  1
  Ni  Ni21  1  0.66705972  0.33372907  0.00061292  1
  Ni  Ni22  1  0.83271027  0.50102088  0.16579989  1
  Ni  Ni23  1  0.66536922  0.33384151  0.33378361  1
  Ni  Ni24  1  0.66689726  0.66729017  1.00028680  1
  Ni  Ni25  1  0.83238524  0.83398161  0.16691870  1
  Ni  Ni26  1  0.66686264  0.66732098  0.33353379  1
  Ni  Ni27  1  0.16813438  0.16595541  0.50180130  1
  Ni  Ni28  1  1.00026621  1.00031226  0.66678615  1
  Fe  Fe29  1  0.16710899  0.16717983  0.83362160  1
  Ni  Ni30  1  0.16813358  0.50155904  0.50107340  1
  Ni  Ni31  1  0.00041641  0.33384353  0.66721455  1
  Ni  Ni32  1  0.16706701  0.50131005  0.83393708  1
  Ni  Ni33  1  0.16697824  0.83365176  0.50038703  1
  Ni  Ni34  1  1.00036214  0.66702606  0.66676635  1
  Ni  Ni35  1  0.16689683  0.83294554  0.83347763  1
  Ni  Ni36  1  0.50060345  0.16729208  0.50019163  1
  Ni  Ni37  1  0.33399540  1.00014119  0.66702511  1
  Ni  Ni38  1  0.50136532  0.16735971  0.83370388  1
  Ni  Ni39  1  0.50028008  0.49989005  0.50053963  1
  Ni  Ni40  1  0.33367800  0.33384904  0.66675878  1
  Ni  Ni41  1  0.49997792  0.49951024  0.83369941  1
  Ni  Ni42  1  0.50010862  0.83397500  0.50053827  1
  Ni  Ni43  1  0.33390382  0.66719048  0.66700157  1
  Ni  Ni44  1  0.49981709  0.83427664  0.83393030  1
  Ni  Ni45  1  0.83239503  0.16611752  0.50131138  1
  Ni  Ni46  1  0.66689231  1.00006173  0.66699954  1
  Ni  Ni47  1  0.83272206  0.16718988  0.83370277  1
  Ni  Ni48  1  0.83272670  0.50106264  0.50166791  1
  Ni  Ni49  1  0.66705487  0.33372594  0.66676864  1
  Ni  Ni50  1  0.83410964  0.49968056  0.83369828  1
  Ni  Ni51  1  0.83407633  0.83397974  0.50028959  1
  Ni  Ni52  1  0.66689431  0.66736592  0.66732771  1
  Ni  Ni53  1  0.83444424  0.83427624  0.83393251  1
" 