6124,Ni95Fe2Cr2_17,-239.027125494338, 177.597209521162,Ni95Fe2Cr2,"# generated using pymatgen
 data_Cr2FeNi51
_symmetry_space_group_name_H-M   'P 1'
_cell_length_a   7.46130067
_cell_length_b   7.46130067
_cell_length_c   10.55187259
_cell_angle_alpha   90.00000000
_cell_angle_beta   90.00000000
_cell_angle_gamma   90.00000000
_symmetry_Int_Tables_number   1
_chemical_formula_structural   Cr2FeNi51
_chemical_formula_sum   'Cr2 Fe1 Ni51'
_cell_volume   587.43337950
_cell_formula_units_Z   1
loop_
 _symmetry_equiv_pos_site_id
 _symmetry_equiv_pos_as_xyz
  1  'x, y, z'
loop_
 _atom_site_type_symbol
 _atom_site_label
 _atom_site_symmetry_multiplicity
 _atom_site_fract_x
 _atom_site_fract_y
 _atom_site_fract_z
 _atom_site_occupancy
  Ni  Ni0  1  0.00056533  0.00056533  1.00008980  1
  Ni  Ni1  1  0.16727686  0.16727686  0.16715731  1
  Ni  Ni2  1  0.00044319  0.00044319  0.33404656  1
  Ni  Ni3  1  1.00035976  0.33351310  0.00046335  1
  Ni  Ni4  1  0.16677864  0.50058371  0.16682133  1
  Ni  Ni5  1  0.99923837  0.33240211  0.33291005  1
  Ni  Ni6  1  1.00035900  0.66707606  0.00046152  1
  Ni  Ni7  1  0.16710378  0.83329733  0.16690323  1
  Ni  Ni8  1  0.99927998  0.66830142  0.33270265  1
  Ni  Ni9  1  0.33351310  1.00035976  0.00046335  1
  Ni  Ni10  1  0.50058371  0.16677864  0.16682133  1
  Ni  Ni11  1  0.33240211  0.99923837  0.33291005  1
  Ni  Ni12  1  0.33360850  0.33360850  0.00043236  1
  Ni  Ni13  1  0.50041849  0.50041849  0.16674341  1
  Ni  Ni14  1  0.33387424  0.33387424  0.33176247  1
  Ni  Ni15  1  0.33377635  0.66721003  0.00046330  1
  Ni  Ni16  1  0.50058278  0.83395326  0.16725219  1
  Ni  Ni17  1  0.33502191  0.66802490  0.33294158  1
  Ni  Ni18  1  0.66707606  1.00035900  0.00046152  1
  Ni  Ni19  1  0.83329733  0.16710378  0.16690323  1
  Ni  Ni20  1  0.66830142  0.99927998  0.33270265  1
  Ni  Ni21  1  0.66721003  0.33377635  0.00046330  1
  Ni  Ni22  1  0.83395326  0.50058278  0.16725219  1
  Ni  Ni23  1  0.66802490  0.33502191  0.33294158  1
  Ni  Ni24  1  0.66704275  0.66704275  0.00049416  1
  Ni  Ni25  1  0.83346776  0.83346776  0.16666455  1
  Ni  Ni26  1  0.66684773  0.66684773  0.33404524  1
  Ni  Ni27  1  0.16565343  0.16565343  0.50070288  1
  Ni  Ni28  1  0.00043840  0.00043840  0.66702790  1
  Ni  Ni29  1  0.16757110  0.16757110  0.83331146  1
  Cr  Cr30  1  0.16667157  0.50032968  0.50000613  1
  Ni  Ni31  1  0.99932429  0.33259082  0.66772454  1
  Ni  Ni32  1  0.16610138  0.50057631  0.83399755  1
  Ni  Ni33  1  0.16713945  0.83481729  0.50069936  1
  Ni  Ni34  1  0.99936620  0.66812095  0.66792545  1
  Ni  Ni35  1  0.16741403  0.83299981  0.83355830  1
  Cr  Cr36  1  0.50032968  0.16667157  0.50000613  1
  Ni  Ni37  1  0.33259082  0.99932429  0.66772454  1
  Ni  Ni38  1  0.50057631  0.16610138  0.83399755  1
  Ni  Ni39  1  0.50197579  0.50197579  0.50108730  1
  Ni  Ni40  1  0.33375432  0.33375432  0.66898284  1
  Fe  Fe41  1  0.50061473  0.50061473  0.83396221  1
  Ni  Ni42  1  0.50055577  0.83240651  0.50031536  1
  Ni  Ni43  1  0.33479462  0.66813466  0.66783326  1
  Ni  Ni44  1  0.50057553  0.83477733  0.83354716  1
  Ni  Ni45  1  0.83481729  0.16713945  0.50069936  1
  Ni  Ni46  1  0.66812095  0.99936620  0.66792545  1
  Ni  Ni47  1  0.83299981  0.16741403  0.83355830  1
  Ni  Ni48  1  0.83240651  0.50055577  0.50031536  1
  Ni  Ni49  1  0.66813466  0.33479462  0.66783326  1
  Ni  Ni50  1  0.83477733  0.50057553  0.83354716  1
  Ni  Ni51  1  0.83346473  0.83346473  0.50069899  1
  Ni  Ni52  1  0.66706615  0.66706615  0.66674466  1
  Ni  Ni53  1  0.83315413  0.83315413  0.83378959  1
" 