4397,Ni95Fe2Cr2_7,-239.0242892592, 177.446627254875,Ni95Fe2Cr2,"# generated using pymatgen
 data_Cr2FeNi51
_symmetry_space_group_name_H-M   'P 1'
_cell_length_a   7.46173111
_cell_length_b   7.46173111
_cell_length_c   10.55248134
_cell_angle_alpha   90.00000000
_cell_angle_beta   90.00000000
_cell_angle_gamma   90.00000000
_symmetry_Int_Tables_number   1
_chemical_formula_structural   Cr2FeNi51
_chemical_formula_sum   'Cr2 Fe1 Ni51'
_cell_volume   587.53505391
_cell_formula_units_Z   1
loop_
 _symmetry_equiv_pos_site_id
 _symmetry_equiv_pos_as_xyz
  1  'x, y, z'
loop_
 _atom_site_type_symbol
 _atom_site_label
 _atom_site_symmetry_multiplicity
 _atom_site_fract_x
 _atom_site_fract_y
 _atom_site_fract_z
 _atom_site_occupancy
  Cr  Cr0  1  0.00090425  0.99969646  0.99995369  1
  Ni  Ni1  1  0.16797254  0.16810051  0.16800629  1
  Ni  Ni2  1  0.00050301  1.00016376  0.33385111  1
  Ni  Ni3  1  0.00035687  0.33532332  0.00055866  1
  Ni  Ni4  1  0.16720924  0.50004516  0.16732580  1
  Ni  Ni5  1  0.00178444  0.33369006  0.33343117  1
  Ni  Ni6  1  0.00052745  0.66554501  1.00032316  1
  Ni  Ni7  1  0.16831413  0.83289777  0.16816970  1
  Ni  Ni8  1  0.00053719  0.66720407  0.33374507  1
  Ni  Ni9  1  0.33530763  1.00032701  1.00032422  1
  Ni  Ni10  1  0.49931326  0.16594866  0.16667574  1
  Ni  Ni11  1  0.33341292  1.00008322  0.33344966  1
  Ni  Ni12  1  0.33400990  0.33373334  0.00055817  1
  Ni  Ni13  1  0.49930428  0.50143120  0.16617265  1
  Ni  Ni14  1  0.33211976  0.33396470  0.33366786  1
  Ni  Ni15  1  0.33357537  0.66701279  1.00032670  1
  Ni  Ni16  1  0.50041593  0.83367857  0.16698467  1
  Ni  Ni17  1  0.33367286  0.66699311  0.33365091  1
  Ni  Ni18  1  0.66537698  0.00049203  0.00055427  1
  Ni  Ni19  1  0.83374471  0.16701061  0.16699301  1
  Ni  Ni20  1  0.66713428  0.99875178  0.33342925  1
  Ni  Ni21  1  0.66670086  0.33373745  1.00012487  1
  Ni  Ni22  1  0.83454464  0.50117405  0.16625546  1
  Cr  Cr23  1  0.66665723  0.33442089  0.33395775  1
  Ni  Ni24  1  0.66696632  0.66683788  0.00056246  1
  Ni  Ni25  1  0.83235892  0.83289457  0.16837432  1
  Ni  Ni26  1  0.66685238  0.66842045  0.33365977  1
  Ni  Ni27  1  0.16624452  0.16710509  0.50018821  1
  Ni  Ni28  1  0.00048772  1.00016933  0.66691287  1
  Ni  Ni29  1  0.16798099  0.16825038  0.83284246  1
  Ni  Ni30  1  0.16742125  0.49975178  0.50018726  1
  Ni  Ni31  1  1.00033374  0.33370425  0.66710135  1
  Ni  Ni32  1  0.16720357  0.49995736  0.83355824  1
  Ni  Ni33  1  0.16756320  0.83419585  0.50042119  1
  Ni  Ni34  1  0.00052150  0.66719475  0.66699993  1
  Ni  Ni35  1  0.16838028  0.83284105  0.83241457  1
  Fe  Fe36  1  0.49938061  0.16589781  0.50123981  1
  Ni  Ni37  1  0.33343964  1.00011626  0.66728359  1
  Ni  Ni38  1  0.50032738  0.16693989  0.83320800  1
  Ni  Ni39  1  0.49925837  0.50231180  0.50131755  1
  Ni  Ni40  1  0.33378010  0.33393014  0.66681209  1
  Ni  Ni41  1  0.50033938  0.50044838  0.83367648  1
  Ni  Ni42  1  0.50042246  0.83303002  0.50018573  1
  Ni  Ni43  1  0.33367019  0.66698602  0.66710492  1
  Ni  Ni44  1  0.50050160  0.83366901  0.83392486  1
  Ni  Ni45  1  0.83556694  0.16600320  0.50125410  1
  Ni  Ni46  1  0.66710520  1.00027385  0.66705419  1
  Ni  Ni47  1  0.83276259  0.16804699  0.83285995  1
  Ni  Ni48  1  0.83434929  0.50085981  0.50129036  1
  Ni  Ni49  1  0.66694188  0.33394039  0.66725070  1
  Ni  Ni50  1  0.83352563  0.50013222  0.83355865  1
  Ni  Ni51  1  0.83306859  0.83420671  0.50018977  1
  Ni  Ni52  1  0.66687540  0.66682730  0.66686567  1
  Ni  Ni53  1  0.83220822  0.83286949  0.83244866  1
" 