3155,Ni95Fe3Cr0_18,-240.11831813689, 182.612581995789,Ni95Fe3Cr0,"# generated using pymatgen
 data_CrFe2Ni51
_symmetry_space_group_name_H-M   'P 1'
_cell_length_a   7.45555832
_cell_length_b   7.45555832
_cell_length_c   10.54375169
_cell_angle_alpha   90.00000000
_cell_angle_beta   90.00000000
_cell_angle_gamma   90.00000000
_symmetry_Int_Tables_number   1
_chemical_formula_structural   CrFe2Ni51
_chemical_formula_sum   'Cr1 Fe2 Ni51'
_cell_volume   586.07812615
_cell_formula_units_Z   1
loop_
 _symmetry_equiv_pos_site_id
 _symmetry_equiv_pos_as_xyz
  1  'x, y, z'
loop_
 _atom_site_type_symbol
 _atom_site_label
 _atom_site_symmetry_multiplicity
 _atom_site_fract_x
 _atom_site_fract_y
 _atom_site_fract_z
 _atom_site_occupancy
  Ni  Ni0  1  0.00130047  1.00038285  0.00085628  1
  Ni  Ni1  1  0.16732459  0.16743719  0.16778634  1
  Ni  Ni2  1  0.00102911  1.00042447  0.33395975  1
  Ni  Ni3  1  0.00130047  0.33449152  0.00085628  1
  Ni  Ni4  1  0.16744281  0.50064860  0.16708979  1
  Ni  Ni5  1  0.00102911  0.33444990  0.33395975  1
  Ni  Ni6  1  0.99997036  0.66743719  1.00048638  1
  Ni  Ni7  1  0.16744281  0.83422577  0.16708979  1
  Ni  Ni8  1  1.00069127  0.66743719  0.33408830  1
  Ni  Ni9  1  0.33397675  0.00146156  0.00082099  1
  Ni  Ni10  1  0.50079172  0.16743719  0.16661121  1
  Ni  Ni11  1  0.33314820  0.99991829  0.33322946  1
  Ni  Ni12  1  0.33397675  0.33341281  0.00082099  1
  Ni  Ni13  1  0.50084718  0.50078993  0.16772311  1
  Ni  Ni14  1  0.33314820  0.33495608  0.33322946  1
  Fe  Fe15  1  0.33430223  0.66743719  1.00072722  1
  Ni  Ni16  1  0.50084718  0.83408445  0.16772311  1
  Ni  Ni17  1  0.33401068  0.66743719  0.33358181  1
  Ni  Ni18  1  0.66700629  1.00009911  0.00081413  1
  Ni  Ni19  1  0.83420484  0.16743719  0.16741852  1
  Ni  Ni20  1  0.66813597  0.99955602  0.33283447  1
  Ni  Ni21  1  0.66700629  0.33477526  0.00081413  1
  Ni  Ni22  1  0.83405252  0.50068997  0.16717689  1
  Ni  Ni23  1  0.66813597  0.33531835  0.33283447  1
  Ni  Ni24  1  0.66811737  0.66743719  0.00085556  1
  Ni  Ni25  1  0.83405252  0.83418440  0.16717689  1
  Ni  Ni26  1  0.66760500  0.66743719  0.33432481  1
  Ni  Ni27  1  0.16566232  0.16743719  0.50073605  1
  Ni  Ni28  1  0.00101896  1.00055603  0.66749611  1
  Ni  Ni29  1  0.16657506  0.16743719  0.83381589  1
  Ni  Ni30  1  0.16766319  0.50084587  0.50108057  1
  Ni  Ni31  1  0.00101896  0.33431834  0.66749611  1
  Ni  Ni32  1  0.16770821  0.50033307  0.83412230  1
  Ni  Ni33  1  0.16766319  0.83402850  0.50108057  1
  Ni  Ni34  1  1.00069086  0.66743719  0.66773644  1
  Ni  Ni35  1  0.16770821  0.83454130  0.83412230  1
  Cr  Cr36  1  0.50089918  0.16743719  0.50120148  1
  Ni  Ni37  1  0.33300811  0.99977717  0.66826141  1
  Fe  Fe38  1  0.50074435  0.16743719  0.83456777  1
  Ni  Ni39  1  0.50061828  0.50255243  0.50073593  1
  Ni  Ni40  1  0.33300811  0.33509720  0.66826141  1
  Ni  Ni41  1  0.50086315  0.50150041  0.83386025  1
  Ni  Ni42  1  0.50061828  0.83232194  0.50073593  1
  Ni  Ni43  1  0.33413861  0.66743719  0.66787169  1
  Ni  Ni44  1  0.50086315  0.83337396  0.83386025  1
  Ni  Ni45  1  0.83573376  0.16743719  0.50073607  1
  Ni  Ni46  1  0.66826144  0.99943095  0.66866921  1
  Ni  Ni47  1  0.83491200  0.16743719  0.83418123  1
  Ni  Ni48  1  0.83402826  0.50055174  0.50108047  1
  Ni  Ni49  1  0.66826144  0.33544342  0.66866921  1
  Ni  Ni50  1  0.83377235  0.50040363  0.83406299  1
  Ni  Ni51  1  0.83402826  0.83432263  0.50108047  1
  Ni  Ni52  1  0.66747133  0.66743719  0.66713297  1
  Ni  Ni53  1  0.83377235  0.83447074  0.83406299  1
" 