154,Ni95Fe3Cr0_10,-240.191639982367, 183.358078070295,Ni95Fe3Cr0,"# generated using pymatgen
 data_CrFe2Ni51
_symmetry_space_group_name_H-M   'P 1'
_cell_length_a   7.45608270
_cell_length_b   7.45608270
_cell_length_c   10.54449328
_cell_angle_alpha   90.00000000
_cell_angle_beta   90.00000000
_cell_angle_gamma   90.00000000
_symmetry_Int_Tables_number   1
_chemical_formula_structural   CrFe2Ni51
_chemical_formula_sum   'Cr1 Fe2 Ni51'
_cell_volume   586.20179949
_cell_formula_units_Z   1
loop_
 _symmetry_equiv_pos_site_id
 _symmetry_equiv_pos_as_xyz
  1  'x, y, z'
loop_
 _atom_site_type_symbol
 _atom_site_label
 _atom_site_symmetry_multiplicity
 _atom_site_fract_x
 _atom_site_fract_y
 _atom_site_fract_z
 _atom_site_occupancy
  Ni  Ni0  1  1.00067232  0.00086842  1.00071346  1
  Ni  Ni1  1  0.16741779  0.16746883  0.16757002  1
  Ni  Ni2  1  0.00186874  1.00036348  0.33320341  1
  Ni  Ni3  1  1.00073512  0.33401639  0.00076649  1
  Ni  Ni4  1  0.16767608  0.50070960  0.16736494  1
  Ni  Ni5  1  0.00161703  0.33431544  0.33319569  1
  Ni  Ni6  1  1.00048555  0.66730953  0.00143070  1
  Ni  Ni7  1  0.16768031  0.83403220  0.16665944  1
  Fe  Fe8  1  0.00103549  0.66750636  0.33397830  1
  Ni  Ni9  1  0.33390793  1.00073254  0.00106824  1
  Ni  Ni10  1  0.50048853  0.16715618  0.16755943  1
  Ni  Ni11  1  0.33339407  1.00012934  0.33423862  1
  Ni  Ni12  1  0.33383454  0.33415038  0.00111096  1
  Ni  Ni13  1  0.50032919  0.50112796  0.16700573  1
  Ni  Ni14  1  0.33365458  0.33454003  0.33423786  1
  Ni  Ni15  1  0.33423142  0.66730786  1.00073178  1
  Ni  Ni16  1  0.50063346  0.83392095  0.16734739  1
  Ni  Ni17  1  0.33477801  0.66753582  0.33400684  1
  Ni  Ni18  1  0.66762417  1.00048574  0.00111162  1
  Ni  Ni19  1  0.83430342  0.16716314  0.16679568  1
  Ni  Ni20  1  0.66690229  0.99929451  0.33317146  1
  Ni  Ni21  1  0.66763446  0.33433113  0.00078114  1
  Ni  Ni22  1  0.83422797  0.50089761  0.16726711  1
  Ni  Ni23  1  0.66689398  0.33564499  0.33316208  1
  Ni  Ni24  1  0.66748772  0.66738737  0.00076524  1
  Ni  Ni25  1  0.83391411  0.83415799  0.16761722  1
  Ni  Ni26  1  0.66674415  0.66727752  0.33424109  1
  Ni  Ni27  1  0.16891705  0.16747615  0.50075308  1
  Ni  Ni28  1  0.00172694  0.99981274  0.66835225  1
  Ni  Ni29  1  0.16751705  0.16817586  0.83385534  1
  Ni  Ni30  1  0.16764157  0.50077718  0.50069491  1
  Ni  Ni31  1  0.00175177  0.33501536  0.66826080  1
  Ni  Ni32  1  0.16743679  0.50022456  0.83409802  1
  Ni  Ni33  1  0.16764863  0.83395972  0.50140359  1
  Ni  Ni34  1  1.00057977  0.66731863  0.66655024  1
  Fe  Fe35  1  0.16752106  0.83375029  0.83420103  1
  Ni  Ni36  1  0.49884254  0.16715025  0.50078415  1
  Ni  Ni37  1  0.33389955  1.00063593  0.66690172  1
  Ni  Ni38  1  0.50021131  0.16686776  0.83385619  1
  Ni  Ni39  1  0.50031678  0.50114500  0.50111498  1
  Ni  Ni40  1  0.33383357  0.33424604  0.66685031  1
  Ni  Ni41  1  0.50003688  0.50130738  0.83409499  1
  Ni  Ni42  1  0.50063358  0.83391448  0.50076471  1
  Ni  Ni43  1  0.33422038  0.66732478  0.66748938  1
  Ni  Ni44  1  0.50137803  0.83402541  0.83410085  1
  Cr  Cr45  1  0.83395946  0.16721722  0.50137281  1
  Ni  Ni46  1  0.66660423  0.99944680  0.66793947  1
  Ni  Ni47  1  0.83447379  0.16687052  0.83428635  1
  Ni  Ni48  1  0.83429364  0.50255008  0.50101112  1
  Ni  Ni49  1  0.66657395  0.33539202  0.66829295  1
  Ni  Ni50  1  0.83473752  0.50139570  0.83385737  1
  Ni  Ni51  1  0.83396715  0.83253703  0.50065543  1
  Ni  Ni52  1  0.66738238  0.66738980  0.66720954  1
  Ni  Ni53  1  0.83342836  0.83394819  0.83385265  1
" 