5474,Ni95Fe2Cr2_18,-239.021167632898, 178.158211658683,Ni95Fe2Cr2,"# generated using pymatgen
 data_Cr2FeNi51
_symmetry_space_group_name_H-M   'P 1'
_cell_length_a   7.46039808
_cell_length_b   7.46039808
_cell_length_c   10.55059614
_cell_angle_alpha   90.00000000
_cell_angle_beta   90.00000000
_cell_angle_gamma   90.00000000
_symmetry_Int_Tables_number   1
_chemical_formula_structural   Cr2FeNi51
_chemical_formula_sum   'Cr2 Fe1 Ni51'
_cell_volume   587.22022092
_cell_formula_units_Z   1
loop_
 _symmetry_equiv_pos_site_id
 _symmetry_equiv_pos_as_xyz
  1  'x, y, z'
loop_
 _atom_site_type_symbol
 _atom_site_label
 _atom_site_symmetry_multiplicity
 _atom_site_fract_x
 _atom_site_fract_y
 _atom_site_fract_z
 _atom_site_occupancy
  Ni  Ni0  1  0.99964905  0.00127289  0.99967483  1
  Ni  Ni1  1  0.16732704  0.16852774  0.16687660  1
  Ni  Ni2  1  0.99961784  0.00132167  0.33460695  1
  Ni  Ni3  1  0.00047173  0.33377899  1.00033210  1
  Ni  Ni4  1  0.16732704  0.49903024  0.16687660  1
  Ni  Ni5  1  0.00047031  0.33377899  0.33379294  1
  Ni  Ni6  1  0.99964905  0.66628508  0.99967483  1
  Cr  Cr7  1  0.16684858  0.83377899  0.16735453  1
  Ni  Ni8  1  0.99961784  0.66623631  0.33460695  1
  Ni  Ni9  1  0.33449642  0.00133256  0.99970745  1
  Ni  Ni10  1  0.50058334  0.16728773  0.16713873  1
  Ni  Ni11  1  0.33465243  0.00121154  0.33459843  1
  Ni  Ni12  1  0.33373764  0.33377899  0.00047328  1
  Ni  Ni13  1  0.50058334  0.50027025  0.16713873  1
  Ni  Ni14  1  0.33370610  0.33377899  0.33379245  1
  Ni  Ni15  1  0.33449642  0.66622541  0.99970745  1
  Ni  Ni16  1  0.50205397  0.83377899  0.16661014  1
  Ni  Ni17  1  0.33465243  0.66634644  0.33459843  1
  Ni  Ni18  1  0.66720660  0.00050853  0.00050260  1
  Ni  Ni19  1  0.83342785  0.16703340  0.16687647  1
  Ni  Ni20  1  0.66706261  1.00036701  0.33379264  1
  Ni  Ni21  1  0.66712637  0.33377899  0.00062260  1
  Ni  Ni22  1  0.83342785  0.50052458  0.16687647  1
  Ni  Ni23  1  0.66715982  0.33377899  0.33364361  1
  Ni  Ni24  1  0.66720660  0.66704945  0.00050260  1
  Ni  Ni25  1  0.83217229  0.83377899  0.16714501  1
  Ni  Ni26  1  0.66706261  0.66719096  0.33379264  1
  Ni  Ni27  1  0.16732573  0.16692291  0.50066862  1
  Ni  Ni28  1  0.00057962  1.00032418  0.66707314  1
  Ni  Ni29  1  0.16756630  0.16668359  0.83379243  1
  Ni  Ni30  1  0.16732573  0.50063507  0.50066862  1
  Ni  Ni31  1  0.00209623  0.33377899  0.66721381  1
  Ni  Ni32  1  0.16756630  0.50087439  0.83379243  1
  Ni  Ni33  1  0.16707304  0.83377899  0.50055312  1
  Ni  Ni34  1  0.00057962  0.66723380  0.66707314  1
  Ni  Ni35  1  0.16644930  0.83377899  0.83364029  1
  Ni  Ni36  1  0.49962591  0.16632782  0.49960261  1
  Ni  Ni37  1  0.33355134  1.00039735  0.66704354  1
  Ni  Ni38  1  0.49964381  0.16696223  0.83458132  1
  Ni  Ni39  1  0.49962591  0.50123016  0.49960261  1
  Ni  Ni40  1  0.33215752  0.33377899  0.66707716  1
  Ni  Ni41  1  0.49964381  0.50059575  0.83458132  1
  Ni  Ni42  1  0.50047376  0.83377899  0.50093608  1
  Ni  Ni43  1  0.33355134  0.66716063  0.66704354  1
  Fe  Fe44  1  0.50044089  0.83377899  0.83377663  1
  Ni  Ni45  1  0.83439263  0.16606942  0.49985334  1
  Ni  Ni46  1  0.66719758  0.99890046  0.66704878  1
  Ni  Ni47  1  0.83413394  0.16584733  0.83458896  1
  Ni  Ni48  1  0.83439263  0.50148855  0.49985334  1
  Cr  Cr49  1  0.66733681  0.33377899  0.66684901  1
  Ni  Ni50  1  0.83413394  0.50171065  0.83458896  1
  Ni  Ni51  1  0.83379296  0.83377899  0.50040453  1
  Ni  Ni52  1  0.66719758  0.66865752  0.66704878  1
  Ni  Ni53  1  0.83441796  0.83377899  0.83379322  1
" 