665,Ni95Fe3Cr0_13,-240.115239588478, 182.846655271759,Ni95Fe3Cr0,"# generated using pymatgen
 data_CrFe2Ni51
_symmetry_space_group_name_H-M   'P 1'
_cell_length_a   7.45556943
_cell_length_b   7.45556943
_cell_length_c   10.54376741
_cell_angle_alpha   90.00000000
_cell_angle_beta   90.00000000
_cell_angle_gamma   90.00000000
_symmetry_Int_Tables_number   1
_chemical_formula_structural   CrFe2Ni51
_chemical_formula_sum   'Cr1 Fe2 Ni51'
_cell_volume   586.08074780
_cell_formula_units_Z   1
loop_
 _symmetry_equiv_pos_site_id
 _symmetry_equiv_pos_as_xyz
  1  'x, y, z'
loop_
 _atom_site_type_symbol
 _atom_site_label
 _atom_site_symmetry_multiplicity
 _atom_site_fract_x
 _atom_site_fract_y
 _atom_site_fract_z
 _atom_site_occupancy
  Ni  Ni0  1  1.00055734  0.00097420  1.00054058  1
  Ni  Ni1  1  0.16770164  0.16725707  0.16733529  1
  Ni  Ni2  1  1.00073296  0.00145690  0.33402718  1
  Ni  Ni3  1  0.00171831  0.33278330  0.00165381  1
  Ni  Ni4  1  0.16723958  0.50045209  0.16751891  1
  Ni  Ni5  1  0.00088867  0.33337266  0.33405523  1
  Ni  Ni6  1  0.00202217  0.66855290  0.00240489  1
  Ni  Ni7  1  0.16742006  0.83459687  0.16777005  1
  Fe  Fe8  1  0.00080230  0.66749429  0.33414491  1
  Ni  Ni9  1  0.33384624  1.00037781  0.00114591  1
  Ni  Ni10  1  0.50051898  0.16725912  0.16768615  1
  Ni  Ni11  1  0.33356888  1.00020516  0.33402453  1
  Ni  Ni12  1  0.33384144  0.33456329  0.00090366  1
  Ni  Ni13  1  0.50100896  0.50050009  0.16744532  1
  Ni  Ni14  1  0.33356936  0.33483675  0.33402284  1
  Ni  Ni15  1  0.33417509  0.66736600  1.00054013  1
  Ni  Ni16  1  0.50083585  0.83455332  0.16769291  1
  Ni  Ni17  1  0.33490453  0.66726818  0.33437154  1
  Ni  Ni18  1  0.66790412  1.00064060  0.00090123  1
  Ni  Ni19  1  0.83408539  0.16742222  0.16782506  1
  Ni  Ni20  1  0.66803187  1.00009144  0.33403293  1
  Ni  Ni21  1  0.66674510  0.33312614  0.00202405  1
  Ni  Ni22  1  0.83403182  0.50077575  0.16759042  1
  Ni  Ni23  1  0.66787577  0.33473780  0.33406116  1
  Ni  Ni24  1  0.66609853  0.66855224  0.00168024  1
  Ni  Ni25  1  0.83402636  0.83410663  0.16715042  1
  Ni  Ni26  1  0.66656603  0.66745890  0.33402443  1
  Ni  Ni27  1  0.16846015  0.16726399  0.50082540  1
  Ni  Ni28  1  1.00076580  1.00076674  0.66766675  1
  Ni  Ni29  1  0.16783408  0.16725260  0.83415839  1
  Ni  Ni30  1  0.16697441  0.50013389  0.50101464  1
  Ni  Ni31  1  0.00182833  0.33299988  0.66656900  1
  Ni  Ni32  1  0.16865429  0.50065331  0.83379188  1
  Ni  Ni33  1  0.16713974  0.83491809  0.50077030  1
  Ni  Ni34  1  0.00186406  0.66847384  0.66594353  1
  Ni  Ni35  1  0.16721784  0.83439775  0.83379265  1
  Ni  Ni36  1  0.49980030  0.16726605  0.50047696  1
  Ni  Ni37  1  0.33385574  1.00049441  0.66714601  1
  Ni  Ni38  1  0.50050673  0.16725190  0.83415839  1
  Ni  Ni39  1  0.50128810  0.50020945  0.50106189  1
  Ni  Ni40  1  0.33385083  0.33443944  0.66738243  1
  Ni  Ni41  1  0.49941271  0.50037816  0.83379224  1
  Ni  Ni42  1  0.50112998  0.83484699  0.50082119  1
  Ni  Ni43  1  0.33417550  0.66737045  0.66739377  1
  Ni  Ni44  1  0.50084689  0.83467495  0.83379274  1
  Fe  Fe45  1  0.83413340  0.16723665  0.50062388  1
  Ni  Ni46  1  0.66770888  1.00044774  0.66729364  1
  Ni  Ni47  1  0.83396908  0.16588164  0.83342478  1
  Ni  Ni48  1  0.83401580  0.50144057  0.50056788  1
  Ni  Ni49  1  0.66664790  0.33332842  0.66618745  1
  Cr  Cr50  1  0.83425240  0.50133817  0.83447393  1
  Ni  Ni51  1  0.83401082  0.83330764  0.50102579  1
  Ni  Ni52  1  0.66626317  0.66847312  0.66666405  1
  Ni  Ni53  1  0.83424338  0.83554013  0.83417435  1
" 