4510,Ni95Fe2Cr2_13,-239.051138925462, 177.770460132363,Ni95Fe2Cr2,"# generated using pymatgen
 data_Cr2FeNi51
_symmetry_space_group_name_H-M   'P 1'
_cell_length_a   7.46110428
_cell_length_b   7.46110428
_cell_length_c   10.55159486
_cell_angle_alpha   90.00000000
_cell_angle_beta   90.00000000
_cell_angle_gamma   90.00000000
_symmetry_Int_Tables_number   1
_chemical_formula_structural   Cr2FeNi51
_chemical_formula_sum   'Cr2 Fe1 Ni51'
_cell_volume   587.38699552
_cell_formula_units_Z   1
loop_
 _symmetry_equiv_pos_site_id
 _symmetry_equiv_pos_as_xyz
  1  'x, y, z'
loop_
 _atom_site_type_symbol
 _atom_site_label
 _atom_site_symmetry_multiplicity
 _atom_site_fract_x
 _atom_site_fract_y
 _atom_site_fract_z
 _atom_site_occupancy
  Ni  Ni0  1  0.99965678  0.00179744  0.00039829  1
  Ni  Ni1  1  0.16676395  0.16728064  0.16691241  1
  Ni  Ni2  1  1.00033735  1.00028594  0.33373898  1
  Ni  Ni3  1  0.00091080  0.33159992  0.00039829  1
  Ni  Ni4  1  0.16792010  0.49928465  0.16798946  1
  Ni  Ni5  1  0.00063900  0.33352128  0.33318244  1
  Cr  Cr6  1  0.00069375  0.66747318  0.00039829  1
  Ni  Ni7  1  0.16801998  0.83464085  0.16816858  1
  Ni  Ni8  1  0.00064100  0.66738692  0.33383355  1
  Fe  Fe9  1  0.33405399  0.00082225  0.00039829  1
  Ni  Ni10  1  0.50050130  0.16713709  0.16738443  1
  Ni  Ni11  1  0.33287266  0.00154803  0.33225609  1
  Ni  Ni12  1  0.33403178  0.33436290  0.00039829  1
  Ni  Ni13  1  0.50040985  0.50050161  0.16716400  1
  Ni  Ni14  1  0.33395024  0.33366062  0.33395890  1
  Ni  Ni15  1  0.33525249  0.66630955  0.00039829  1
  Ni  Ni16  1  0.50047881  0.83356735  0.16670808  1
  Ni  Ni17  1  0.33268548  0.66599072  0.33267638  1
  Ni  Ni18  1  0.66770990  0.00057532  0.00039829  1
  Ni  Ni19  1  0.83395138  0.16721087  0.16694565  1
  Ni  Ni20  1  0.66799993  0.00154249  0.33291701  1
  Ni  Ni21  1  0.66623528  0.33303885  0.00039829  1
  Ni  Ni22  1  0.83284347  0.49922851  0.16772836  1
  Ni  Ni23  1  0.66660788  0.33335534  0.33363144  1
  Ni  Ni24  1  0.66494676  0.66756249  0.00039829  1
  Ni  Ni25  1  0.83272577  0.83472843  0.16822864  1
  Ni  Ni26  1  0.66787105  0.66630399  0.33234162  1
  Ni  Ni27  1  0.16687613  0.16711691  0.50039829  1
  Ni  Ni28  1  1.00033735  1.00028594  0.66705760  1
  Ni  Ni29  1  0.16676395  0.16728064  0.83388416  1
  Ni  Ni30  1  0.16679959  0.50021363  0.50039829  1
  Ni  Ni31  1  0.00063900  0.33352128  0.66761413  1
  Ni  Ni32  1  0.16792010  0.49928465  0.83280711  1
  Ni  Ni33  1  0.16561733  0.83386356  0.50039829  1
  Ni  Ni34  1  0.00064100  0.66738692  0.66696303  1
  Ni  Ni35  1  0.16801998  0.83464085  0.83262800  1
  Ni  Ni36  1  0.50028115  0.16852592  0.50039829  1
  Ni  Ni37  1  0.33287266  0.00154803  0.66854048  1
  Ni  Ni38  1  0.50050130  0.16713709  0.83341215  1
  Ni  Ni39  1  0.50050548  0.49895540  0.50039829  1
  Ni  Ni40  1  0.33395024  0.33366062  0.66683768  1
  Ni  Ni41  1  0.50040985  0.50050161  0.83363257  1
  Cr  Cr42  1  0.50027351  0.83374399  0.50039829  1
  Ni  Ni43  1  0.33268548  0.66599072  0.66812020  1
  Ni  Ni44  1  0.50047881  0.83356735  0.83408849  1
  Ni  Ni45  1  0.83403904  0.16734384  0.50039829  1
  Ni  Ni46  1  0.66799993  0.00154249  0.66787956  1
  Ni  Ni47  1  0.83395138  0.16721087  0.83385092  1
  Ni  Ni48  1  0.83388935  0.50021316  0.50039829  1
  Ni  Ni49  1  0.66660788  0.33335534  0.66716513  1
  Ni  Ni50  1  0.83284347  0.49922851  0.83306822  1
  Ni  Ni51  1  0.83529600  0.83363857  0.50039829  1
  Ni  Ni52  1  0.66787105  0.66630399  0.66845495  1
  Ni  Ni53  1  0.83272577  0.83472843  0.83256793  1
" 