1915,Ni95Fe2Cr2_15,-239.049712593941, 177.921294390436,Ni95Fe2Cr2,"# generated using pymatgen
 data_Cr2FeNi51
_symmetry_space_group_name_H-M   'P 1'
_cell_length_a   7.46069482
_cell_length_b   7.46069482
_cell_length_c   10.55101580
_cell_angle_alpha   90.00000000
_cell_angle_beta   90.00000000
_cell_angle_gamma   90.00000000
_symmetry_Int_Tables_number   1
_chemical_formula_structural   Cr2FeNi51
_chemical_formula_sum   'Cr2 Fe1 Ni51'
_cell_volume   587.29029573
_cell_formula_units_Z   1
loop_
 _symmetry_equiv_pos_site_id
 _symmetry_equiv_pos_as_xyz
  1  'x, y, z'
loop_
 _atom_site_type_symbol
 _atom_site_label
 _atom_site_symmetry_multiplicity
 _atom_site_fract_x
 _atom_site_fract_y
 _atom_site_fract_z
 _atom_site_occupancy
  Ni  Ni0  1  0.00071170  1.00013981  0.00131680  1
  Ni  Ni1  1  0.16713025  0.16707494  0.16680744  1
  Ni  Ni2  1  1.00004583  0.00080567  0.33349809  1
  Ni  Ni3  1  0.00214541  0.33461343  0.00131223  1
  Ni  Ni4  1  0.16623718  0.49958202  0.16809907  1
  Ni  Ni5  1  1.00036109  0.33362046  0.33384738  1
  Ni  Ni6  1  0.99824243  0.66657018  1.00025901  1
  Ni  Ni7  1  0.16620526  0.83464624  0.16778879  1
  Ni  Ni8  1  1.00003764  0.66684894  0.33325986  1
  Ni  Ni9  1  0.33428133  0.00260907  1.00025901  1
  Ni  Ni10  1  0.50029202  0.16702154  0.16674254  1
  Ni  Ni11  1  0.33400256  0.00081386  0.33325986  1
  Ni  Ni12  1  0.33300863  0.33219502  1.00025788  1
  Ni  Ni13  1  0.50121115  0.49964035  0.16798762  1
  Ni  Ni14  1  0.33367072  0.33361535  0.33362608  1
  Cr  Cr15  1  0.33406219  0.66678931  0.00047340  1
  Ni  Ni16  1  0.50126948  0.83461433  0.16809907  1
  Ni  Ni17  1  0.33400324  0.66684826  0.33367120  1
  Ni  Ni18  1  0.66623807  0.99870609  0.00131223  1
  Ni  Ni19  1  0.83385891  0.16699259  0.16741666  1
  Ni  Ni20  1  0.66723104  0.00049042  0.33384738  1
  Fe  Fe21  1  0.66652006  0.33433144  0.00126042  1
  Ni  Ni22  1  0.83382996  0.50055948  0.16674254  1
  Ni  Ni23  1  0.66723381  0.33361769  0.33315946  1
  Ni  Ni24  1  0.66865649  0.66784287  1.00025788  1
  Ni  Ni25  1  0.83377656  0.83372125  0.16680744  1
  Ni  Ni26  1  0.66723615  0.66718078  0.33362608  1
  Ni  Ni27  1  0.16723205  0.16696748  0.50062972  1
  Ni  Ni28  1  0.00107083  0.99978067  0.66643519  1
  Ni  Ni29  1  0.16863060  0.16709239  0.83386404  1
  Ni  Ni30  1  0.16723144  0.50069086  0.50039079  1
  Ni  Ni31  1  0.00131966  0.33463024  0.66615055  1
  Ni  Ni32  1  0.16624305  0.49957949  0.83280504  1
  Ni  Ni33  1  0.16723457  0.83361694  0.50038744  1
  Ni  Ni34  1  1.00012243  0.66685267  0.66775942  1
  Ni  Ni35  1  0.16621317  0.83463833  0.83310075  1
  Ni  Ni36  1  0.50041907  0.16722805  0.50062549  1
  Ni  Ni37  1  0.33399884  0.00072908  0.66775942  1
  Ni  Ni38  1  0.49872613  0.16699208  0.83388616  1
  Ni  Ni39  1  0.50042261  0.50042889  0.50038980  1
  Ni  Ni40  1  0.33368774  0.33369770  0.66741842  1
  Ni  Ni41  1  0.50118415  0.49966735  0.83288938  1
  Ni  Ni42  1  0.50016064  0.83362007  0.50039079  1
  Ni  Ni43  1  0.33399801  0.66685349  0.66711774  1
  Ni  Ni44  1  0.50127201  0.83460845  0.83280504  1
  Ni  Ni45  1  0.83362387  0.16722763  0.50020935  1
  Ni  Ni46  1  0.66622126  0.99953185  0.66615055  1
  Cr  Cr47  1  0.83396283  0.16688867  0.83356034  1
  Ni  Ni48  1  0.83362345  0.50043243  0.50062549  1
  Ni  Ni49  1  0.66623662  0.33461488  0.66684585  1
  Ni  Ni50  1  0.83385943  0.50212537  0.83388616  1
  Ni  Ni51  1  0.83388402  0.83361945  0.50062972  1
  Ni  Ni52  1  0.66715380  0.66716376  0.66741842  1
  Ni  Ni53  1  0.83375911  0.83222090  0.83386404  1
" 