6927,Ni95Fe3Cr0_1,-240.156927822822, 182.916792956203,Ni95Fe3Cr0,"# generated using pymatgen
 data_CrFe2Ni51
_symmetry_space_group_name_H-M   'P 1'
_cell_length_a   7.45578044
_cell_length_b   7.45578044
_cell_length_c   10.54406582
_cell_angle_alpha   90.00000000
_cell_angle_beta   90.00000000
_cell_angle_gamma   90.00000000
_symmetry_Int_Tables_number   1
_chemical_formula_structural   CrFe2Ni51
_chemical_formula_sum   'Cr1 Fe2 Ni51'
_cell_volume   586.13051103
_cell_formula_units_Z   1
loop_
 _symmetry_equiv_pos_site_id
 _symmetry_equiv_pos_as_xyz
  1  'x, y, z'
loop_
 _atom_site_type_symbol
 _atom_site_label
 _atom_site_symmetry_multiplicity
 _atom_site_fract_x
 _atom_site_fract_y
 _atom_site_fract_z
 _atom_site_occupancy
  Ni  Ni0  1  0.00075560  0.00149677  0.00102129  1
  Ni  Ni1  1  0.16722406  0.16756579  0.16768078  1
  Ni  Ni2  1  0.00075560  0.00237315  0.33404897  1
  Ni  Ni3  1  0.00075560  0.33321781  1.00025452  1
  Ni  Ni4  1  0.16839771  0.49946913  0.16649094  1
  Ni  Ni5  1  0.00075560  0.33250733  0.33481170  1
  Fe  Fe6  1  0.00075560  0.66736838  1.00029929  1
  Ni  Ni7  1  0.16871764  0.83523543  0.16645109  1
  Cr  Cr8  1  0.00075560  0.66785166  0.33327133  1
  Ni  Ni9  1  0.33347560  1.00065565  1.00039419  1
  Ni  Ni10  1  0.50075560  0.16727624  0.16705939  1
  Ni  Ni11  1  0.33375348  0.00093619  0.33409032  1
  Ni  Ni12  1  0.33381192  0.33444612  0.00076603  1
  Ni  Ni13  1  0.50075560  0.50094512  0.16767817  1
  Ni  Ni14  1  0.33409522  0.33416262  0.33371756  1
  Ni  Ni15  1  0.33466630  0.66716734  1.00065146  1
  Ni  Ni16  1  0.50075560  0.83404451  0.16768114  1
  Ni  Ni17  1  0.33548292  0.66716334  0.33443945  1
  Ni  Ni18  1  0.66803560  1.00065565  1.00039419  1
  Ni  Ni19  1  0.83428714  0.16756579  0.16768078  1
  Ni  Ni20  1  0.66775772  0.00093619  0.33409032  1
  Ni  Ni21  1  0.66769927  0.33444612  0.00076603  1
  Ni  Ni22  1  0.83311349  0.49946913  0.16649094  1
  Ni  Ni23  1  0.66741598  0.33416262  0.33371756  1
  Ni  Ni24  1  0.66684490  0.66716734  1.00065146  1
  Ni  Ni25  1  0.83279356  0.83523543  0.16645109  1
  Ni  Ni26  1  0.66602828  0.66716334  0.33443945  1
  Ni  Ni27  1  0.16756723  0.16736187  0.50060086  1
  Ni  Ni28  1  0.00075560  0.99998235  0.66714419  1
  Ni  Ni29  1  0.16738434  0.16730076  0.83406532  1
  Ni  Ni30  1  0.16836538  0.49983684  0.50172902  1
  Fe  Fe31  1  0.00075560  0.33391791  0.66757378  1
  Ni  Ni32  1  0.16765948  0.50072956  0.83408121  1
  Ni  Ni33  1  0.16840479  0.83501780  0.50161895  1
  Ni  Ni34  1  0.00075560  0.66821071  0.66836527  1
  Ni  Ni35  1  0.16755863  0.83421381  0.83413190  1
  Ni  Ni36  1  0.50075560  0.16740698  0.50073778  1
  Ni  Ni37  1  0.33346164  0.00125341  0.66777597  1
  Ni  Ni38  1  0.50075560  0.16740989  0.83446634  1
  Ni  Ni39  1  0.50075560  0.50067003  0.50050215  1
  Ni  Ni40  1  0.33484115  0.33415707  0.66776957  1
  Ni  Ni41  1  0.50075560  0.50093474  0.83408618  1
  Ni  Ni42  1  0.50075560  0.83418622  0.50087806  1
  Ni  Ni43  1  0.33364417  0.66686697  0.66715324  1
  Ni  Ni44  1  0.50075560  0.83392321  0.83370709  1
  Ni  Ni45  1  0.83394397  0.16736187  0.50060086  1
  Ni  Ni46  1  0.66804955  0.00125341  0.66777597  1
  Ni  Ni47  1  0.83412686  0.16730076  0.83406532  1
  Ni  Ni48  1  0.83314582  0.49983684  0.50172902  1
  Ni  Ni49  1  0.66667005  0.33415707  0.66776957  1
  Ni  Ni50  1  0.83385172  0.50072956  0.83408121  1
  Ni  Ni51  1  0.83310641  0.83501780  0.50161895  1
  Ni  Ni52  1  0.66786702  0.66686697  0.66715324  1
  Ni  Ni53  1  0.83395257  0.83421381  0.83413190  1
" 