8630,Ni95Fe2Cr2_0,-239.063215365551, 178.066383440812,Ni95Fe2Cr2,"# generated using pymatgen
 data_Cr2FeNi51
_symmetry_space_group_name_H-M   'P 1'
_cell_length_a   7.46128403
_cell_length_b   7.46128403
_cell_length_c   10.55184907
_cell_angle_alpha   90.00000000
_cell_angle_beta   90.00000000
_cell_angle_gamma   90.00000000
_symmetry_Int_Tables_number   1
_chemical_formula_structural   Cr2FeNi51
_chemical_formula_sum   'Cr2 Fe1 Ni51'
_cell_volume   587.42945134
_cell_formula_units_Z   1
loop_
 _symmetry_equiv_pos_site_id
 _symmetry_equiv_pos_as_xyz
  1  'x, y, z'
loop_
 _atom_site_type_symbol
 _atom_site_label
 _atom_site_symmetry_multiplicity
 _atom_site_fract_x
 _atom_site_fract_y
 _atom_site_fract_z
 _atom_site_occupancy
  Ni  Ni0  1  0.99868016  0.00052527  0.00056142  1
  Ni  Ni1  1  0.16607578  0.16647062  0.16791908  1
  Ni  Ni2  1  0.00057496  1.00029448  0.33328000  1
  Ni  Ni3  1  0.99899431  0.33270023  0.99945338  1
  Cr  Cr4  1  0.16694683  0.50020391  0.16711248  1
  Ni  Ni5  1  0.99921882  0.33286649  0.33466470  1
  Ni  Ni6  1  0.99924456  0.66794627  0.99944522  1
  Ni  Ni7  1  0.16571742  0.83459800  0.16830397  1
  Ni  Ni8  1  0.99918072  0.66793582  0.33458665  1
  Cr  Cr9  1  0.33363472  1.00026671  0.00056669  1
  Ni  Ni10  1  0.50154954  0.16793688  0.16791674  1
  Ni  Ni11  1  0.33365847  1.00037656  0.33369461  1
  Ni  Ni12  1  0.33480013  0.33443441  0.99944305  1
  Ni  Ni13  1  0.50222999  0.50012410  0.16718907  1
  Ni  Ni14  1  0.33475184  0.33266474  0.33435140  1
  Ni  Ni15  1  0.33481055  0.66646900  0.99943070  1
  Ni  Ni16  1  0.50190618  0.83309832  0.16829617  1
  Ni  Ni17  1  0.33479117  0.66813953  0.33470213  1
  Ni  Ni18  1  0.66885083  0.00052377  1.00032167  1
  Ni  Ni19  1  0.83353293  0.16679459  0.16755416  1
  Ni  Ni20  1  0.66694304  1.00029402  0.33352533  1
  Ni  Ni21  1  0.66737757  0.33384457  0.00056524  1
  Ni  Ni22  1  0.83207586  0.50045834  0.16707126  1
  Ni  Ni23  1  0.66712128  0.33404411  0.33353259  1
  Ni  Ni24  1  0.66711902  0.66679262  0.00056456  1
  Ni  Ni25  1  0.83353337  0.83391209  0.16682935  1
  Ni  Ni26  1  0.66720035  0.66682351  0.33349482  1
  Ni  Ni27  1  0.16784140  0.16708094  0.50017191  1
  Ni  Ni28  1  0.00065711  1.00028516  0.66731719  1
  Ni  Ni29  1  0.16606876  0.16813747  0.83305428  1
  Ni  Ni30  1  0.16665468  0.49983328  0.50061968  1
  Ni  Ni31  1  1.00029977  0.33395206  0.66706544  1
  Ni  Ni32  1  0.16687006  0.50012821  0.83335868  1
  Ni  Ni33  1  0.16648070  0.83425293  0.50017693  1
  Ni  Ni34  1  1.00022199  0.66690859  0.66710323  1
  Ni  Ni35  1  0.16572584  0.83289582  0.83267727  1
  Ni  Ni36  1  0.49972039  0.16690669  0.50041084  1
  Ni  Ni37  1  0.33356580  1.00037401  0.66689337  1
  Ni  Ni38  1  0.50153426  0.16797701  0.83282155  1
  Ni  Ni39  1  0.50077907  0.49983021  0.50017627  1
  Ni  Ni40  1  0.33373647  0.33370272  0.66733729  1
  Ni  Ni41  1  0.50055103  0.50012980  0.83380553  1
  Ni  Ni42  1  0.50111561  0.83441695  0.50040517  1
  Ni  Ni43  1  0.33373464  0.66707895  0.66701042  1
  Ni  Ni44  1  0.50187756  0.83304732  0.83245108  1
  Fe  Fe45  1  0.83350112  0.16668940  0.50051898  1
  Ni  Ni46  1  0.66693041  1.00027657  0.66732348  1
  Ni  Ni47  1  0.83356743  0.16682103  0.83319313  1
  Ni  Ni48  1  0.83373052  0.50118990  0.50017351  1
  Ni  Ni49  1  0.66711413  0.33413048  0.66707561  1
  Ni  Ni50  1  0.83373373  0.50045103  0.83391058  1
  Ni  Ni51  1  0.83355815  0.83319201  0.50040969  1
  Ni  Ni52  1  0.66720068  0.66673833  0.66710445  1
  Ni  Ni53  1  0.83356486  0.83389071  0.83391450  1
" 