5490,Ni95Fe3Cr0_12,-240.221094638379, 183.087621333144,Ni95Fe3Cr0,"# generated using pymatgen
 data_CrFe2Ni51
_symmetry_space_group_name_H-M   'P 1'
_cell_length_a   7.45652172
_cell_length_b   7.45652172
_cell_length_c   10.54511415
_cell_angle_alpha   90.00000000
_cell_angle_beta   90.00000000
_cell_angle_gamma   90.00000000
_symmetry_Int_Tables_number   1
_chemical_formula_structural   CrFe2Ni51
_chemical_formula_sum   'Cr1 Fe2 Ni51'
_cell_volume   586.30535345
_cell_formula_units_Z   1
loop_
 _symmetry_equiv_pos_site_id
 _symmetry_equiv_pos_as_xyz
  1  'x, y, z'
loop_
 _atom_site_type_symbol
 _atom_site_label
 _atom_site_symmetry_multiplicity
 _atom_site_fract_x
 _atom_site_fract_y
 _atom_site_fract_z
 _atom_site_occupancy
  Ni  Ni0  1  0.00094806  1.00048687  0.00078559  1
  Ni  Ni1  1  0.16771329  0.16758325  0.16727327  1
  Ni  Ni2  1  0.00215098  0.00085823  0.33403915  1
  Ni  Ni3  1  0.00098585  0.33430393  0.00077430  1
  Ni  Ni4  1  0.16703036  0.50044609  0.16703663  1
  Ni  Ni5  1  0.00073669  0.33392309  0.33403915  1
  Ni  Ni6  1  0.00092322  0.66718637  0.00084087  1
  Ni  Ni7  1  0.16737105  0.83408644  0.16690802  1
  Ni  Ni8  1  0.00103970  0.66733351  0.33403915  1
  Ni  Ni9  1  0.33398945  1.00069299  0.00108838  1
  Ni  Ni10  1  0.49951652  0.16836724  0.16657398  1
  Ni  Ni11  1  0.33229347  1.00055883  0.33403915  1
  Ni  Ni12  1  0.33375764  0.33417095  0.00077511  1
  Ni  Ni13  1  0.50100950  0.50044139  0.16651470  1
  Ni  Ni14  1  0.33400906  0.33452925  0.33403915  1
  Ni  Ni15  1  0.33362115  0.66739181  1.00053351  1
  Ni  Ni16  1  0.49986641  0.83330718  0.16619458  1
  Ni  Ni17  1  0.33400816  0.66702919  0.33403915  1
  Ni  Ni18  1  0.66731221  1.00063154  1.00057290  1
  Ni  Ni19  1  0.83487842  0.16873790  0.16542307  1
  Cr  Cr20  1  0.66766734  0.00086864  0.33403915  1
  Ni  Ni21  1  0.66737671  0.33405505  1.00068952  1
  Ni  Ni22  1  0.83406790  0.50078080  0.16764537  1
  Ni  Ni23  1  0.66736832  0.33564021  0.33403915  1
  Ni  Ni24  1  0.66744666  0.66742461  0.00103180  1
  Ni  Ni25  1  0.83487697  0.83258331  0.16617131  1
  Ni  Ni26  1  0.66706775  0.66561852  0.33403915  1
  Ni  Ni27  1  0.16771329  0.16758325  0.50080503  1
  Ni  Ni28  1  0.00094806  1.00048687  0.66729272  1
  Ni  Ni29  1  0.16906257  0.16775259  0.83403915  1
  Ni  Ni30  1  0.16703036  0.50044609  0.50104168  1
  Ni  Ni31  1  0.00098585  0.33430393  0.66730400  1
  Ni  Ni32  1  0.16567913  0.50014204  0.83403915  1
  Ni  Ni33  1  0.16737105  0.83408644  0.50117028  1
  Ni  Ni34  1  0.00092322  0.66718637  0.66723743  1
  Ni  Ni35  1  0.16737228  0.83422262  0.83403915  1
  Ni  Ni36  1  0.49951652  0.16836724  0.50150432  1
  Ni  Ni37  1  0.33398945  1.00069299  0.66698992  1
  Ni  Ni38  1  0.50012996  0.16682881  0.83403915  1
  Ni  Ni39  1  0.50100950  0.50044139  0.50156360  1
  Ni  Ni40  1  0.33375764  0.33417095  0.66730319  1
  Fe  Fe41  1  0.50003277  0.50155193  0.83403915  1
  Ni  Ni42  1  0.49986641  0.83330718  0.50188372  1
  Ni  Ni43  1  0.33362115  0.66739181  0.66754479  1
  Ni  Ni44  1  0.50125144  0.83571476  0.83403915  1
  Ni  Ni45  1  0.83487842  0.16873790  0.50265523  1
  Ni  Ni46  1  0.66731221  1.00063154  0.66750540  1
  Fe  Fe47  1  0.83495348  0.16659221  0.83403915  1
  Ni  Ni48  1  0.83406790  0.50078080  0.50043293  1
  Ni  Ni49  1  0.66737671  0.33405505  0.66738879  1
  Ni  Ni50  1  0.83441617  0.50126388  0.83403915  1
  Ni  Ni51  1  0.83487697  0.83258331  0.50190699  1
  Ni  Ni52  1  0.66744666  0.66742461  0.66704650  1
  Ni  Ni53  1  0.83349214  0.83233042  0.83403915  1
" 