4507,Ni95Fe2Cr2_14,-239.050509619585, 177.89163190328,Ni95Fe2Cr2,"# generated using pymatgen
 data_Cr2FeNi51
_symmetry_space_group_name_H-M   'P 1'
_cell_length_a   7.46126287
_cell_length_b   7.46126287
_cell_length_c   10.55181914
_cell_angle_alpha   90.00000000
_cell_angle_beta   90.00000000
_cell_angle_gamma   90.00000000
_symmetry_Int_Tables_number   1
_chemical_formula_structural   Cr2FeNi51
_chemical_formula_sum   'Cr2 Fe1 Ni51'
_cell_volume   587.42445240
_cell_formula_units_Z   1
loop_
 _symmetry_equiv_pos_site_id
 _symmetry_equiv_pos_as_xyz
  1  'x, y, z'
loop_
 _atom_site_type_symbol
 _atom_site_label
 _atom_site_symmetry_multiplicity
 _atom_site_fract_x
 _atom_site_fract_y
 _atom_site_fract_z
 _atom_site_occupancy
  Ni  Ni0  1  0.99970578  0.99968844  0.00059021  1
  Ni  Ni1  1  0.16500097  0.16702992  0.16684362  1
  Ni  Ni2  1  0.99840583  1.00000174  0.33344239  1
  Ni  Ni3  1  0.99810679  0.33437826  1.00037395  1
  Ni  Ni4  1  0.16614662  0.50141456  0.16817853  1
  Ni  Ni5  1  0.99999181  0.33413758  0.33322409  1
  Ni  Ni6  1  0.00089480  0.66707344  1.00036578  1
  Ni  Ni7  1  0.16615630  0.83272268  0.16608418  1
  Ni  Ni8  1  1.00013547  0.66702510  0.33378514  1
  Ni  Ni9  1  0.33423672  0.99825991  1.00016867  1
  Ni  Ni10  1  0.50238752  0.16705489  0.16713797  1
  Cr  Cr11  1  0.33390514  1.00019390  0.33327877  1
  Cr  Cr12  1  0.33401773  0.33402999  0.00059891  1
  Ni  Ni13  1  0.50123083  0.50133002  0.16810807  1
  Ni  Ni14  1  0.33396432  0.33554886  0.33364395  1
  Ni  Ni15  1  0.33299101  0.66862887  0.00060569  1
  Ni  Ni16  1  0.50125532  0.83275566  0.16600858  1
  Ni  Ni17  1  0.33365219  0.66545027  0.33354981  1
  Ni  Ni18  1  0.66719539  0.00101128  0.00059468  1
  Ni  Ni19  1  0.83373139  0.16706283  0.16712395  1
  Ni  Ni20  1  0.66876021  1.00031567  0.33378277  1
  Ni  Ni21  1  0.66873311  0.33309834  1.00036832  1
  Ni  Ni22  1  0.83380256  0.50022772  0.16685544  1
  Ni  Ni23  1  0.66720377  0.33382355  0.33356016  1
  Fe  Fe24  1  0.66763767  0.66723403  1.00026519  1
  Ni  Ni25  1  0.83381996  0.83389945  0.16733581  1
  Ni  Ni26  1  0.66737894  0.66702960  0.33310816  1
  Ni  Ni27  1  0.16600525  0.16807340  0.50129659  1
  Ni  Ni28  1  1.00001744  1.00000470  0.66712919  1
  Ni  Ni29  1  0.16599599  0.16602592  0.83303874  1
  Ni  Ni30  1  0.16711660  0.50028749  0.50021552  1
  Ni  Ni31  1  1.00002589  0.33410226  0.66756245  1
  Ni  Ni32  1  0.16620881  0.50140347  0.83276093  1
  Ni  Ni33  1  0.16616644  0.83280327  0.50129290  1
  Ni  Ni34  1  1.00016745  0.66705454  0.66701278  1
  Ni  Ni35  1  0.16711470  0.83372319  0.83382288  1
  Ni  Ni36  1  0.50131472  0.16806527  0.50128761  1
  Ni  Ni37  1  0.33396281  1.00016702  0.66777747  1
  Ni  Ni38  1  0.50141255  0.16608832  0.83276603  1
  Ni  Ni39  1  0.50044966  0.50052482  0.50021484  1
  Ni  Ni40  1  0.33395913  0.33394462  0.66692345  1
  Ni  Ni41  1  0.50116839  0.50131166  0.83282342  1
  Ni  Ni42  1  0.50139106  0.83257356  0.50128542  1
  Ni  Ni43  1  0.33365889  0.66705410  0.66701568  1
  Ni  Ni44  1  0.50024385  0.83379206  0.83386224  1
  Ni  Ni45  1  0.83383198  0.16711968  0.50021559  1
  Ni  Ni46  1  0.66717945  1.00030667  0.66679407  1
  Ni  Ni47  1  0.83373373  0.16698969  0.83382271  1
  Ni  Ni48  1  0.83359589  0.50036987  0.50044562  1
  Ni  Ni49  1  0.66717906  0.33379965  0.66723433  1
  Ni  Ni50  1  0.83381858  0.50021407  0.83384504  1
  Ni  Ni51  1  0.83359477  0.83367319  0.50021591  1
  Ni  Ni52  1  0.66734230  0.66706157  0.66768668  1
  Ni  Ni53  1  0.83382964  0.83397258  0.83360229  1
" 