8520,Ni95Fe3Cr0_6,-240.203610654111, 183.075166548495,Ni95Fe3Cr0,"# generated using pymatgen
 data_CrFe2Ni51
_symmetry_space_group_name_H-M   'P 1'
_cell_length_a   7.45605691
_cell_length_b   7.45605691
_cell_length_c   10.54445680
_cell_angle_alpha   90.00000000
_cell_angle_beta   90.00000000
_cell_angle_gamma   90.00000000
_symmetry_Int_Tables_number   1
_chemical_formula_structural   CrFe2Ni51
_chemical_formula_sum   'Cr1 Fe2 Ni51'
_cell_volume   586.19571616
_cell_formula_units_Z   1
loop_
 _symmetry_equiv_pos_site_id
 _symmetry_equiv_pos_as_xyz
  1  'x, y, z'
loop_
 _atom_site_type_symbol
 _atom_site_label
 _atom_site_symmetry_multiplicity
 _atom_site_fract_x
 _atom_site_fract_y
 _atom_site_fract_z
 _atom_site_occupancy
  Ni  Ni0  1  0.00099358  0.99939586  0.00105023  1
  Ni  Ni1  1  0.16863747  0.16655414  0.16859843  1
  Ni  Ni2  1  0.00128207  0.00126936  0.33413723  1
  Cr  Cr3  1  1.00031071  0.33394500  1.00036105  1
  Ni  Ni4  1  0.16830554  0.50182395  0.16823446  1
  Ni  Ni5  1  0.99996663  0.33405667  0.33422602  1
  Ni  Ni6  1  0.00099331  0.66888558  0.00104960  1
  Ni  Ni7  1  0.16758480  0.83381244  0.16745815  1
  Ni  Ni8  1  0.00127424  0.66687872  0.33377440  1
  Ni  Ni9  1  0.33411633  1.00046728  1.00067662  1
  Ni  Ni10  1  0.50083860  0.16730569  0.16715837  1
  Ni  Ni11  1  0.33423748  0.99972514  0.33401667  1
  Ni  Ni12  1  0.33575408  0.33421849  0.00141736  1
  Ni  Ni13  1  0.50080893  0.50074097  0.16792961  1
  Fe  Fe14  1  0.33393484  0.33373273  0.33388775  1
  Ni  Ni15  1  0.33440361  0.66752282  1.00067971  1
  Ni  Ni16  1  0.50075334  0.83413734  0.16733460  1
  Ni  Ni17  1  0.33418639  0.66842785  0.33409264  1
  Ni  Ni18  1  0.66710546  0.00081249  0.00104913  1
  Ni  Ni19  1  0.83277426  0.16656625  0.16854219  1
  Ni  Ni20  1  0.66667757  0.00109522  0.33401642  1
  Ni  Ni21  1  0.66569621  0.33421979  1.00066320  1
  Ni  Ni22  1  0.83312265  0.50182793  0.16815597  1
  Ni  Ni23  1  0.66832110  0.33400231  0.33384069  1
  Ni  Ni24  1  0.66681820  0.66718025  0.00104904  1
  Ni  Ni25  1  0.83387191  0.83381040  0.16782396  1
  Ni  Ni26  1  0.66673080  0.66709760  0.33408712  1
  Ni  Ni27  1  0.16789550  0.16786194  0.50076567  1
  Ni  Ni28  1  0.00099107  0.00098423  0.66702858  1
  Ni  Ni29  1  0.16890805  0.16671620  0.83281155  1
  Ni  Ni30  1  0.16655882  0.50082905  0.50075499  1
  Ni  Ni31  1  1.00066865  0.33405359  0.66731355  1
  Ni  Ni32  1  0.16854377  0.50168364  0.83320703  1
  Ni  Ni33  1  0.16777083  0.83352948  0.50082384  1
  Ni  Ni34  1  0.00098902  0.66717426  0.66739645  1
  Ni  Ni35  1  0.16745957  0.83381021  0.83393042  1
  Ni  Ni36  1  0.50084092  0.16668690  0.50078432  1
  Ni  Ni37  1  0.33424152  1.00048497  0.66750106  1
  Ni  Ni38  1  0.50059958  0.16753613  0.83429954  1
  Fe  Fe39  1  0.50111369  0.50095036  0.50106505  1
  Ni  Ni40  1  0.33400487  0.33399322  0.66693696  1
  Ni  Ni41  1  0.50060096  0.50053098  0.83355839  1
  Ni  Ni42  1  0.50074673  0.83490490  0.50081681  1
  Ni  Ni43  1  0.33415306  0.66775888  0.66745603  1
  Ni  Ni44  1  0.50087632  0.83415312  0.83406007  1
  Ni  Ni45  1  0.83350447  0.16792857  0.50082288  1
  Ni  Ni46  1  0.66698214  0.00080024  0.66714724  1
  Ni  Ni47  1  0.83268947  0.16640169  0.83278412  1
  Ni  Ni48  1  0.83488100  0.50076480  0.50081767  1
  Ni  Ni49  1  0.66756841  0.33396321  0.66770980  1
  Ni  Ni50  1  0.83305670  0.50199865  0.83318297  1
  Ni  Ni51  1  0.83369505  0.83352148  0.50045994  1
  Ni  Ni52  1  0.66708314  0.66745651  0.66712073  1
  Ni  Ni53  1  0.83387631  0.83381023  0.83393342  1
" 