4441,Ni95Fe3Cr0_9,-240.202747976253, 182.962635465256,Ni95Fe3Cr0,"# generated using pymatgen
 data_CrFe2Ni51
_symmetry_space_group_name_H-M   'P 1'
_cell_length_a   7.45594848
_cell_length_b   7.45594848
_cell_length_c   10.54430347
_cell_angle_alpha   90.00000000
_cell_angle_beta   90.00000000
_cell_angle_gamma   90.00000000
_symmetry_Int_Tables_number   1
_chemical_formula_structural   CrFe2Ni51
_chemical_formula_sum   'Cr1 Fe2 Ni51'
_cell_volume   586.17014321
_cell_formula_units_Z   1
loop_
 _symmetry_equiv_pos_site_id
 _symmetry_equiv_pos_as_xyz
  1  'x, y, z'
loop_
 _atom_site_type_symbol
 _atom_site_label
 _atom_site_symmetry_multiplicity
 _atom_site_fract_x
 _atom_site_fract_y
 _atom_site_fract_z
 _atom_site_occupancy
  Ni  Ni0  1  1.00059700  1.00061647  1.00070661  1
  Ni  Ni1  1  0.16607229  0.16823880  0.16616631  1
  Ni  Ni2  1  0.99876390  1.00033928  0.33438867  1
  Ni  Ni3  1  1.00033162  0.33451023  1.00049653  1
  Ni  Ni4  1  0.16721255  0.50086284  0.16726948  1
  Ni  Ni5  1  1.00044715  0.33451386  0.33438534  1
  Ni  Ni6  1  1.00072576  0.66712344  0.00079547  1
  Ni  Ni7  1  0.16644385  0.83314565  0.16657093  1
  Ni  Ni8  1  1.00049679  0.66738002  0.33402108  1
  Ni  Ni9  1  0.33432613  1.00051476  1.00029257  1
  Ni  Ni10  1  0.50193287  0.16823005  0.16617691  1
  Cr  Cr11  1  0.33427333  1.00067387  0.33432497  1
  Ni  Ni12  1  0.33432653  0.33434967  1.00036037  1
  Ni  Ni13  1  0.50109043  0.50114975  0.16727039  1
  Ni  Ni14  1  0.33433331  0.33590947  0.33438975  1
  Ni  Ni15  1  0.33401680  0.66738183  0.00108084  1
  Ni  Ni16  1  0.50185185  0.83286724  0.16657595  1
  Ni  Ni17  1  0.33399297  0.66572898  0.33401738  1
  Ni  Ni18  1  0.66731901  0.00091237  0.00104219  1
  Ni  Ni19  1  0.83421508  0.16743747  0.16763402  1
  Ni  Ni20  1  0.66910048  1.00067658  0.33402046  1
  Ni  Ni21  1  0.66758254  0.33420241  0.00084227  1
  Ni  Ni22  1  0.83392960  0.50081315  0.16739732  1
  Ni  Ni23  1  0.66745006  0.33417419  0.33401800  1
  Ni  Ni24  1  0.66752286  0.66715591  1.00004300  1
  Ni  Ni25  1  0.83392935  0.83398253  0.16690058  1
  Ni  Ni26  1  0.66773661  0.66737828  0.33474685  1
  Ni  Ni27  1  0.16609157  0.16822110  0.50224940  1
  Ni  Ni28  1  1.00025158  1.00026727  0.66718597  1
  Ni  Ni29  1  0.16685432  0.16688738  0.83379965  1
  Ni  Ni30  1  0.16720406  0.50098350  0.50079701  1
  Ni  Ni31  1  1.00002871  0.33479695  0.66735635  1
  Ni  Ni32  1  0.16705140  0.50127495  0.83416445  1
  Ni  Ni33  1  0.16648026  0.83305276  0.50147298  1
  Ni  Ni34  1  0.00140708  0.66715965  0.66744575  1
  Ni  Ni35  1  0.16821338  0.83407226  0.83415905  1
  Ni  Ni36  1  0.50201984  0.16817947  0.50185387  1
  Ni  Ni37  1  0.33460721  1.00021746  0.66755216  1
  Ni  Ni38  1  0.50129208  0.16689734  0.83416431  1
  Ni  Ni39  1  0.50082923  0.50088704  0.50082921  1
  Ni  Ni40  1  0.33461885  0.33463808  0.66748367  1
  Ni  Ni41  1  0.50104335  0.50121660  0.83409918  1
  Ni  Ni42  1  0.50163284  0.83309765  0.50156282  1
  Ni  Ni43  1  0.33328035  0.66738662  0.66712116  1
  Ni  Ni44  1  0.49992979  0.83411896  0.83407876  1
  Ni  Ni45  1  0.83408903  0.16743251  0.50044466  1
  Ni  Ni46  1  0.66735663  0.00155963  0.66718980  1
  Ni  Ni47  1  0.83408868  0.16805944  0.83415920  1
  Ni  Ni48  1  0.83417582  0.50057747  0.50072615  1
  Ni  Ni49  1  0.66758980  0.33343080  0.66736791  1
  Ni  Ni50  1  0.83415375  0.49989532  0.83409730  1
  Ni  Ni51  1  0.83414393  0.83419563  0.50125568  1
  Fe  Fe52  1  0.66732111  0.66683565  0.66727677  1
  Fe  Fe53  1  0.83441758  0.83458232  0.83436543  1
" 