8730,Ni95Fe2Cr2_10,-239.027980989267, 177.477203044854,Ni95Fe2Cr2,"# generated using pymatgen
 data_Cr2FeNi51
_symmetry_space_group_name_H-M   'P 1'
_cell_length_a   7.46275707
_cell_length_b   7.46275707
_cell_length_c   10.55393226
_cell_angle_alpha   90.00000000
_cell_angle_beta   90.00000000
_cell_angle_gamma   90.00000000
_symmetry_Int_Tables_number   1
_chemical_formula_structural   Cr2FeNi51
_chemical_formula_sum   'Cr2 Fe1 Ni51'
_cell_volume   587.77743742
_cell_formula_units_Z   1
loop_
 _symmetry_equiv_pos_site_id
 _symmetry_equiv_pos_as_xyz
  1  'x, y, z'
loop_
 _atom_site_type_symbol
 _atom_site_label
 _atom_site_symmetry_multiplicity
 _atom_site_fract_x
 _atom_site_fract_y
 _atom_site_fract_z
 _atom_site_occupancy
  Ni  Ni0  1  1.00013108  0.99853960  1.00009543  1
  Ni  Ni1  1  0.16777514  0.16563584  0.16817920  1
  Ni  Ni2  1  0.00037916  0.00033966  0.33358537  1
  Cr  Cr3  1  0.00042407  0.33362080  1.00025020  1
  Ni  Ni4  1  0.16777514  0.50160576  0.16817920  1
  Ni  Ni5  1  0.00029495  0.33362080  0.33353707  1
  Ni  Ni6  1  1.00013108  0.66870199  1.00009543  1
  Ni  Ni7  1  0.16682482  0.83362080  0.16674675  1
  Ni  Ni8  1  0.00037916  0.66690193  0.33358537  1
  Ni  Ni9  1  0.33401244  1.00004326  0.00035966  1
  Ni  Ni10  1  0.50053307  0.16690601  0.16710583  1
  Ni  Ni11  1  0.33399371  0.99992789  0.33354688  1
  Ni  Ni12  1  0.33521009  0.33362080  1.00009094  1
  Ni  Ni13  1  0.50053307  0.50033558  0.16710583  1
  Ni  Ni14  1  0.33366662  0.33362080  0.33392707  1
  Ni  Ni15  1  0.33401244  0.66719834  0.00035966  1
  Ni  Ni16  1  0.50022387  0.83362080  0.16696919  1
  Ni  Ni17  1  0.33399371  0.66731371  0.33354688  1
  Ni  Ni18  1  0.66671996  0.99974461  0.00035437  1
  Ni  Ni19  1  0.83255371  0.16597471  0.16778729  1
  Ni  Ni20  1  0.66646619  1.00004841  0.33357226  1
  Ni  Ni21  1  0.66520897  0.33362080  1.00009708  1
  Ni  Ni22  1  0.83255371  0.50126689  0.16778729  1
  Ni  Ni23  1  0.66689823  0.33362080  0.33353604  1
  Ni  Ni24  1  0.66671996  0.66749698  0.00035437  1
  Ni  Ni25  1  0.83381091  0.83362080  0.16750776  1
  Ni  Ni26  1  0.66646619  0.66719318  0.33357226  1
  Ni  Ni27  1  0.16745243  0.16534730  0.49939780  1
  Ni  Ni28  1  0.00031045  0.99871731  0.66709989  1
  Ni  Ni29  1  0.16893586  0.16446123  0.83334157  1
  Ni  Ni30  1  0.16745243  0.50189430  0.49939780  1
  Cr  Cr31  1  0.00060885  0.33362080  0.66742703  1
  Ni  Ni32  1  0.16893586  0.50278036  0.83334157  1
  Ni  Ni33  1  0.16749757  0.83362080  0.50044202  1
  Ni  Ni34  1  0.00031045  0.66852429  0.66709989  1
  Ni  Ni35  1  0.16692982  0.83362080  0.83367236  1
  Ni  Ni36  1  0.50084744  0.16658683  0.50044220  1
  Ni  Ni37  1  0.33400192  0.99991386  0.66696831  1
  Ni  Ni38  1  0.50053839  0.16680175  0.83330024  1
  Ni  Ni39  1  0.50084744  0.50065477  0.50044220  1
  Ni  Ni40  1  0.33528759  0.33362080  0.66683685  1
  Ni  Ni41  1  0.50053839  0.50043984  0.83330024  1
  Ni  Ni42  1  0.49940402  0.83362080  0.50022419  1
  Ni  Ni43  1  0.33400192  0.66732773  0.66696831  1
  Ni  Ni44  1  0.50022175  0.83362080  0.83366983  1
  Ni  Ni45  1  0.83260053  0.16671419  0.49942340  1
  Ni  Ni46  1  0.66649717  0.99996114  0.66688242  1
  Ni  Ni47  1  0.83141873  0.16482946  0.83370382  1
  Ni  Ni48  1  0.83260053  0.50052740  0.49942340  1
  Ni  Ni49  1  0.66542484  0.33362080  0.66721142  1
  Ni  Ni50  1  0.83141873  0.50241214  0.83370382  1
  Fe  Fe51  1  0.83353870  0.83362080  0.50017266  1
  Ni  Ni52  1  0.66649717  0.66728045  0.66688242  1
  Ni  Ni53  1  0.83371263  0.83362080  0.83291273  1
" 