5876,Ni95Fe3Cr1_16,-239.007528098208, 177.650583617762,Ni95Fe3Cr1,"# generated using pymatgen
 data_Cr2FeNi51
_symmetry_space_group_name_H-M   'P 1'
_cell_length_a   7.46188778
_cell_length_b   7.46188778
_cell_length_c   10.55270290
_cell_angle_alpha   90.00000000
_cell_angle_beta   90.00000000
_cell_angle_gamma   90.00000000
_symmetry_Int_Tables_number   1
_chemical_formula_structural   Cr2FeNi51
_chemical_formula_sum   'Cr2 Fe1 Ni51'
_cell_volume   587.57206229
_cell_formula_units_Z   1
loop_
 _symmetry_equiv_pos_site_id
 _symmetry_equiv_pos_as_xyz
  1  'x, y, z'
loop_
 _atom_site_type_symbol
 _atom_site_label
 _atom_site_symmetry_multiplicity
 _atom_site_fract_x
 _atom_site_fract_y
 _atom_site_fract_z
 _atom_site_occupancy
  Ni  Ni0  1  1.00031957  1.00005724  1.00014955  1
  Ni  Ni1  1  0.16803622  0.16805630  0.16611354  1
  Cr  Cr2  1  0.99960351  1.00002596  0.33312604  1
  Ni  Ni3  1  1.00023805  0.33366744  0.00034724  1
  Ni  Ni4  1  0.16692434  0.50030382  0.16714744  1
  Ni  Ni5  1  1.00034387  0.33511101  0.33381174  1
  Ni  Ni6  1  1.00032207  0.66731485  0.00057593  1
  Ni  Ni7  1  0.16822021  0.83262254  0.16676946  1
  Ni  Ni8  1  1.00005055  0.66540263  0.33356907  1
  Ni  Ni9  1  0.33353856  1.00022662  1.00034054  1
  Ni  Ni10  1  0.50012836  0.16667935  0.16747964  1
  Ni  Ni11  1  0.33528326  0.00045765  0.33381240  1
  Ni  Ni12  1  0.33395532  0.33383658  0.00053748  1
  Ni  Ni13  1  0.50011789  0.50060443  0.16724734  1
  Ni  Ni14  1  0.33386620  0.33382415  0.33338342  1
  Ni  Ni15  1  0.33370228  0.66697072  1.00010863  1
  Ni  Ni16  1  0.50027395  0.83375319  0.16714854  1
  Ni  Ni17  1  0.33395132  0.66673534  0.33383628  1
  Ni  Ni18  1  0.66718746  1.00030772  0.00058260  1
  Ni  Ni19  1  0.83284106  0.16800234  0.16635897  1
  Ni  Ni20  1  0.66561340  1.00018588  0.33359775  1
  Ni  Ni21  1  0.66683539  0.33383592  1.00010682  1
  Ni  Ni22  1  0.83399716  0.50044698  0.16748127  1
  Ni  Ni23  1  0.66682799  0.33385688  0.33412813  1
  Ni  Ni24  1  0.66701411  0.66689534  0.00034739  1
  Ni  Ni25  1  0.83256269  0.83258133  0.16605340  1
  Ni  Ni26  1  0.66703955  0.66698838  0.33359191  1
  Ni  Ni27  1  0.16704444  0.16784453  0.50037555  1
  Ni  Ni28  1  1.00009277  1.00022968  0.66726122  1
  Ni  Ni29  1  0.16598610  0.16605508  0.83462820  1
  Ni  Ni30  1  0.16597977  0.50057035  0.49934447  1
  Ni  Ni31  1  0.99887450  0.33365402  0.66688139  1
  Ni  Ni32  1  0.16579113  0.50133242  0.83467341  1
  Fe  Fe33  1  0.16772038  0.83276907  0.50106205  1
  Ni  Ni34  1  1.00010404  0.66713756  0.66682369  1
  Ni  Ni35  1  0.16710313  0.83365254  0.83288130  1
  Ni  Ni36  1  0.50082347  0.16542102  0.49932228  1
  Ni  Ni37  1  0.33370775  0.99886451  0.66679311  1
  Ni  Ni38  1  0.50119144  0.16552213  0.83433962  1
  Ni  Ni39  1  0.50084081  0.50187943  0.49952572  1
  Cr  Cr40  1  0.33451325  0.33417321  0.66779929  1
  Ni  Ni41  1  0.50121943  0.50171616  0.83436749  1
  Ni  Ni42  1  0.50101359  0.83374242  0.50034622  1
  Ni  Ni43  1  0.33386856  0.66846777  0.66701461  1
  Ni  Ni44  1  0.50036800  0.83381926  0.83357693  1
  Ni  Ni45  1  0.83321419  0.16751513  0.50137841  1
  Ni  Ni46  1  0.66721966  1.00018871  0.66688843  1
  Ni  Ni47  1  0.83389663  0.16685657  0.83321166  1
  Ni  Ni48  1  0.83427958  0.50082633  0.50034433  1
  Ni  Ni49  1  0.66854573  0.33384034  0.66678838  1
  Ni  Ni50  1  0.83406397  0.50051657  0.83320651  1
  Ni  Ni51  1  0.83176267  0.83265555  0.50117530  1
  Ni  Ni52  1  0.66706137  0.66700536  0.66711815  1
  Ni  Ni53  1  0.83358954  0.83366392  0.83379004  1
" 