4483,Ni95Fe3Cr1_14,-239.007528098208, 177.650583621292,Ni95Fe3Cr1,"# generated using pymatgen
 data_Cr2FeNi51
_symmetry_space_group_name_H-M   'P 1'
_cell_length_a   7.46188778
_cell_length_b   7.46188778
_cell_length_c   10.55270290
_cell_angle_alpha   90.00000000
_cell_angle_beta   90.00000000
_cell_angle_gamma   90.00000000
_symmetry_Int_Tables_number   1
_chemical_formula_structural   Cr2FeNi51
_chemical_formula_sum   'Cr2 Fe1 Ni51'
_cell_volume   587.57206229
_cell_formula_units_Z   1
loop_
 _symmetry_equiv_pos_site_id
 _symmetry_equiv_pos_as_xyz
  1  'x, y, z'
loop_
 _atom_site_type_symbol
 _atom_site_label
 _atom_site_symmetry_multiplicity
 _atom_site_fract_x
 _atom_site_fract_y
 _atom_site_fract_z
 _atom_site_occupancy
  Ni  Ni0  1  1.00023805  0.00035739  1.00034425  1
  Ni  Ni1  1  0.16598610  0.16796975  0.16606329  1
  Ni  Ni2  1  0.99887450  0.00037081  0.33381010  1
  Ni  Ni3  1  1.00031957  0.33396758  0.00054194  1
  Ni  Ni4  1  0.16710313  0.50037228  0.16781019  1
  Ni  Ni5  1  1.00009277  0.33379515  0.33343028  1
  Ni  Ni6  1  1.00032207  0.66670997  1.00011556  1
  Ni  Ni7  1  0.16579113  0.83269241  0.16601808  1
  Ni  Ni8  1  1.00010404  0.66688727  0.33386780  1
  Ni  Ni9  1  0.33395532  1.00018825  1.00015401  1
  Ni  Ni10  1  0.50119144  0.16850270  0.16635187  1
  Cr  Cr11  1  0.33451325  0.99985161  0.33289220  1
  Ni  Ni12  1  0.33353856  0.33379820  0.00035095  1
  Ni  Ni13  1  0.50036800  0.50020556  0.16711457  1
  Ni  Ni14  1  0.33370775  0.33516031  0.33389838  1
  Ni  Ni15  1  0.33370228  0.66705410  0.00058286  1
  Ni  Ni16  1  0.50121943  0.83230867  0.16632400  1
  Ni  Ni17  1  0.33386856  0.66555706  0.33367688  1
  Ni  Ni18  1  0.66683539  1.00018891  0.00058468  1
  Ni  Ni19  1  0.83389663  0.16716825  0.16747983  1
  Ni  Ni20  1  0.66854573  1.00018448  0.33390311  1
  Ni  Ni21  1  0.66718746  0.33371710  1.00010889  1
  Ni  Ni22  1  0.83358954  0.50036090  0.16690145  1
  Ni  Ni23  1  0.66721966  0.33383611  0.33380306  1
  Ni  Ni24  1  0.66701411  0.66712948  1.00034410  1
  Ni  Ni25  1  0.83406397  0.83350825  0.16748498  1
  Ni  Ni26  1  0.66706137  0.66701946  0.33357334  1
  Ni  Ni27  1  0.16704444  0.16618029  0.50031594  1
  Ni  Ni28  1  1.00034387  0.99891382  0.66687975  1
  Ni  Ni29  1  0.16803622  0.16596853  0.83457795  1
  Fe  Fe30  1  0.16772038  0.50125575  0.49962945  1
  Cr  Cr31  1  0.99960351  0.33399886  0.66756545  1
  Ni  Ni32  1  0.16822021  0.50140229  0.83392203  1
  Ni  Ni33  1  0.16597977  0.83345447  0.50134702  1
  Ni  Ni34  1  1.00005055  0.66862219  0.66712242  1
  Ni  Ni35  1  0.16692434  0.83372100  0.83354406  1
  Ni  Ni36  1  0.50082347  0.16860380  0.50136921  1
  Ni  Ni37  1  0.33386620  1.00020068  0.66730807  1
  Ni  Ni38  1  0.50012836  0.16734547  0.83321185  1
  Ni  Ni39  1  0.50101359  0.50028240  0.50034528  1
  Ni  Ni40  1  0.33528326  0.33356717  0.66687909  1
  Ni  Ni41  1  0.50027395  0.50027163  0.83354295  1
  Ni  Ni42  1  0.50084081  0.83214539  0.50116577  1
  Ni  Ni43  1  0.33395132  0.66728949  0.66685521  1
  Ni  Ni44  1  0.50011789  0.83342040  0.83344415  1
  Ni  Ni45  1  0.83321419  0.16650970  0.49931308  1
  Ni  Ni46  1  0.66682799  1.00016794  0.66656336  1
  Ni  Ni47  1  0.83284106  0.16602248  0.83433252  1
  Ni  Ni48  1  0.83176267  0.50136927  0.49951619  1
  Ni  Ni49  1  0.66561340  0.33383894  0.66709374  1
  Ni  Ni50  1  0.83256269  0.50144349  0.83463809  1
  Ni  Ni51  1  0.83427958  0.83319850  0.50034716  1
  Ni  Ni52  1  0.66703955  0.66703645  0.66709958  1
  Ni  Ni53  1  0.83399716  0.83357785  0.83321022  1
" 