5226,Ni95Fe2Cr2_1,-239.003535727448, 177.48512126695,Ni95Fe2Cr2,"# generated using pymatgen
 data_Cr2FeNi51
_symmetry_space_group_name_H-M   'P 1'
_cell_length_a   7.46189691
_cell_length_b   7.46189691
_cell_length_c   10.55271581
_cell_angle_alpha   90.00000000
_cell_angle_beta   90.00000000
_cell_angle_gamma   90.00000000
_symmetry_Int_Tables_number   1
_chemical_formula_structural   Cr2FeNi51
_chemical_formula_sum   'Cr2 Fe1 Ni51'
_cell_volume   587.57421851
_cell_formula_units_Z   1
loop_
 _symmetry_equiv_pos_site_id
 _symmetry_equiv_pos_as_xyz
  1  'x, y, z'
loop_
 _atom_site_type_symbol
 _atom_site_label
 _atom_site_symmetry_multiplicity
 _atom_site_fract_x
 _atom_site_fract_y
 _atom_site_fract_z
 _atom_site_occupancy
  Ni  Ni0  1  0.99880107  0.99987729  0.99945621  1
  Cr  Cr1  1  0.16753245  0.16724108  0.16701213  1
  Ni  Ni2  1  1.00006066  0.00055720  0.33341445  1
  Ni  Ni3  1  0.99993540  0.33470430  0.99944818  1
  Ni  Ni4  1  0.16716924  0.50181190  0.16704926  1
  Ni  Ni5  1  0.99930886  0.33472745  0.33477719  1
  Ni  Ni6  1  0.99989338  0.66644607  0.00051560  1
  Ni  Ni7  1  0.16700073  0.83209381  0.16697140  1
  Ni  Ni8  1  0.00118162  0.66572893  0.33232526  1
  Ni  Ni9  1  0.33526504  0.99968567  0.99942513  1
  Ni  Ni10  1  0.50181992  0.16713043  0.16697246  1
  Ni  Ni11  1  0.33499706  0.99947416  0.33446501  1
  Ni  Ni12  1  0.33396913  0.33473353  0.99941909  1
  Ni  Ni13  1  0.50029796  0.50044215  0.16701169  1
  Ni  Ni14  1  0.33466286  0.33472499  0.33457094  1
  Ni  Ni15  1  0.33414315  0.66660864  0.00051802  1
  Ni  Ni16  1  0.50052555  0.83350033  0.16728861  1
  Ni  Ni17  1  0.33385578  0.66683875  0.33337923  1
  Ni  Ni18  1  0.66698720  0.99970567  0.00051859  1
  Ni  Ni19  1  0.83218167  0.16695857  0.16720445  1
  Ni  Ni20  1  0.66597648  0.00133351  0.33269794  1
  Fe  Fe21  1  0.66715129  0.33386367  1.00026251  1
  Ni  Ni22  1  0.83357252  0.50062095  0.16724676  1
  Ni  Ni23  1  0.66708016  0.33360632  0.33302605  1
  Ni  Ni24  1  0.66699666  0.66783997  1.00028483  1
  Ni  Ni25  1  0.83351277  0.83349688  0.16685728  1
  Ni  Ni26  1  0.66597898  0.66606667  0.33289854  1
  Ni  Ni27  1  0.16719387  0.16707717  0.50056959  1
  Ni  Ni28  1  0.00111578  0.00161348  0.66821282  1
  Ni  Ni29  1  0.16716676  0.16715453  0.83340890  1
  Ni  Ni30  1  0.16719044  0.50026494  0.50013713  1
  Ni  Ni31  1  1.00031384  0.33370270  0.66680005  1
  Ni  Ni32  1  0.16716473  0.50019104  0.83383409  1
  Ni  Ni33  1  0.16854577  0.83369535  0.50013610  1
  Ni  Ni34  1  0.00130800  0.66570085  0.66824284  1
  Ni  Ni35  1  0.16699700  0.83369156  0.83391978  1
  Ni  Ni36  1  0.50027601  0.16731929  0.50013459  1
  Ni  Ni37  1  0.33395204  0.00049793  0.66713397  1
  Ni  Ni38  1  0.50008211  0.16706766  0.83386182  1
  Ni  Ni39  1  0.50045249  0.50019446  0.50036675  1
  Ni  Ni40  1  0.33362994  0.33369327  0.66703351  1
  Ni  Ni41  1  0.50021955  0.50046292  0.83361169  1
  Ni  Ni42  1  0.49872017  0.83352113  0.50037069  1
  Ni  Ni43  1  0.33378874  0.66684586  0.66713078  1
  Ni  Ni44  1  0.50050692  0.83352050  0.83338030  1
  Ni  Ni45  1  0.83356314  0.16867449  0.50013806  1
  Ni  Ni46  1  0.66595030  0.00147025  0.66788300  1
  Ni  Ni47  1  0.83378813  0.16689549  0.83362241  1
  Ni  Ni48  1  0.83339262  0.49870664  0.50036807  1
  Ni  Ni49  1  0.66708860  0.33354102  0.66749442  1
  Ni  Ni50  1  0.83365706  0.50064156  0.83337221  1
  Cr  Cr51  1  0.83325614  0.83315297  0.50073341  1
  Ni  Ni52  1  0.66592069  0.66600279  0.66791515  1
  Ni  Ni53  1  0.83353882  0.83351844  0.83380829  1
" 