7798,Ni95Fe3Cr1_11,-239.049359168463, 178.238389426042,Ni95Fe3Cr1,"# generated using pymatgen
 data_Cr2FeNi51
_symmetry_space_group_name_H-M   'P 1'
_cell_length_a   7.46149913
_cell_length_b   7.46149913
_cell_length_c   10.55215327
_cell_angle_alpha   90.00000000
_cell_angle_beta   90.00000000
_cell_angle_gamma   90.00000000
_symmetry_Int_Tables_number   1
_chemical_formula_structural   Cr2FeNi51
_chemical_formula_sum   'Cr2 Fe1 Ni51'
_cell_volume   587.48025660
_cell_formula_units_Z   1
loop_
 _symmetry_equiv_pos_site_id
 _symmetry_equiv_pos_as_xyz
  1  'x, y, z'
loop_
 _atom_site_type_symbol
 _atom_site_label
 _atom_site_symmetry_multiplicity
 _atom_site_fract_x
 _atom_site_fract_y
 _atom_site_fract_z
 _atom_site_occupancy
  Ni  Ni0  1  1.00019564  1.00013090  0.00083758  1
  Ni  Ni1  1  0.16720944  0.16688368  0.16748138  1
  Ni  Ni2  1  0.99983658  0.99983320  0.33370386  1
  Ni  Ni3  1  0.00115790  0.33288757  0.99974723  1
  Ni  Ni4  1  0.16853836  0.50037282  0.16675802  1
  Ni  Ni5  1  0.99983045  0.33224211  0.33371789  1
  Ni  Ni6  1  0.00140878  0.66808597  0.99947013  1
  Ni  Ni7  1  0.16717444  0.83387238  0.16717228  1
  Ni  Ni8  1  0.00119752  0.66903009  0.33373340  1
  Ni  Ni9  1  0.33380244  1.00013000  0.00060577  1
  Ni  Ni10  1  0.50033522  0.16674254  0.16695636  1
  Ni  Ni11  1  0.33414925  0.99985238  0.33393427  1
  Ni  Ni12  1  0.33395832  0.33401098  0.00083844  1
  Ni  Ni13  1  0.49865707  0.50026132  0.16718833  1
  Ni  Ni14  1  0.33526210  0.33330895  0.33265427  1
  Ni  Ni15  1  0.33365107  0.66697638  0.00050905  1
  Ni  Ni16  1  0.50021907  0.83414576  0.16695341  1
  Ni  Ni17  1  0.33394225  0.66794194  0.33267585  1
  Ni  Ni18  1  0.66711505  0.00043576  0.00050928  1
  Ni  Ni19  1  0.83356164  0.16537704  0.16696628  1
  Ni  Ni20  1  0.66711560  0.00120737  0.33347474  1
  Ni  Ni21  1  0.66600084  0.33279115  0.99946395  1
  Cr  Cr22  1  0.83388061  0.50018597  0.16710871  1
  Ni  Ni23  1  0.66600580  0.33199989  0.33476500  1
  Ni  Ni24  1  0.66601153  0.66792005  1.00014485  1
  Ni  Ni25  1  0.83370283  0.83555165  0.16693629  1
  Fe  Fe26  1  0.66610426  0.66815534  0.33446420  1
  Ni  Ni27  1  0.16718293  0.16525925  0.50014885  1
  Ni  Ni28  1  1.00005936  1.00012921  0.66656910  1
  Ni  Ni29  1  0.16718650  0.16691259  0.83347510  1
  Cr  Cr30  1  0.16702725  0.50007439  0.50053935  1
  Ni  Ni31  1  0.99908832  0.33287839  0.66767366  1
  Ni  Ni32  1  0.16701685  0.50025700  0.83413504  1
  Ni  Ni33  1  0.16715120  0.83540066  0.50045867  1
  Ni  Ni34  1  0.99942003  0.66808846  0.66798855  1
  Ni  Ni35  1  0.16718509  0.83394657  0.83348017  1
  Ni  Ni36  1  0.50037650  0.16674694  0.50047190  1
  Ni  Ni37  1  0.33387513  1.00012676  0.66656765  1
  Ni  Ni38  1  0.50025891  0.16674512  0.83370679  1
  Ni  Ni39  1  0.50196048  0.50034005  0.50013929  1
  Ni  Ni40  1  0.33501062  0.33303661  0.66767569  1
  Ni  Ni41  1  0.50049525  0.50049814  0.83370012  1
  Ni  Ni42  1  0.50034289  0.83409229  0.50040397  1
  Ni  Ni43  1  0.33466418  0.66793304  0.66800705  1
  Ni  Ni44  1  0.50049916  0.83386925  0.83370349  1
  Ni  Ni45  1  0.83355517  0.16690668  0.50024302  1
  Ni  Ni46  1  0.66718280  0.00045834  0.66715982  1
  Ni  Ni47  1  0.83367171  0.16691016  0.83393322  1
  Ni  Ni48  1  0.83216400  0.50033776  0.50057905  1
  Ni  Ni49  1  0.66702729  0.33368767  0.66692133  1
  Ni  Ni50  1  0.83360140  0.50049770  0.83327085  1
  Ni  Ni51  1  0.83359310  0.83392661  0.50018301  1
  Ni  Ni52  1  0.66702541  0.66697740  0.66624538  1
  Ni  Ni53  1  0.83343202  0.83370739  0.83392672  1
" 