3674,Ni95Fe3Cr0_7,-240.212919505119, 183.250658864806,Ni95Fe3Cr0,"# generated using pymatgen
 data_CrFe2Ni51
_symmetry_space_group_name_H-M   'P 1'
_cell_length_a   7.45588371
_cell_length_b   7.45588371
_cell_length_c   10.54421187
_cell_angle_alpha   90.00000000
_cell_angle_beta   90.00000000
_cell_angle_gamma   90.00000000
_symmetry_Int_Tables_number   1
_chemical_formula_structural   CrFe2Ni51
_chemical_formula_sum   'Cr1 Fe2 Ni51'
_cell_volume   586.15486685
_cell_formula_units_Z   1
loop_
 _symmetry_equiv_pos_site_id
 _symmetry_equiv_pos_as_xyz
  1  'x, y, z'
loop_
 _atom_site_type_symbol
 _atom_site_label
 _atom_site_symmetry_multiplicity
 _atom_site_fract_x
 _atom_site_fract_y
 _atom_site_fract_z
 _atom_site_occupancy
  Ni  Ni0  1  0.00085955  1.00061299  1.00061744  1
  Ni  Ni1  1  0.16679415  0.16808786  0.16722380  1
  Ni  Ni2  1  1.00013775  1.00060278  0.33421414  1
  Ni  Ni3  1  0.00264536  0.33373246  0.00101289  1
  Ni  Ni4  1  0.16821167  0.50070319  0.16716474  1
  Ni  Ni5  1  0.00137581  0.33347080  0.33390253  1
  Ni  Ni6  1  0.00125909  0.66792576  0.00103019  1
  Ni  Ni7  1  0.16681591  0.83348257  0.16745513  1
  Ni  Ni8  1  0.00153427  0.66820093  0.33412982  1
  Ni  Ni9  1  0.33390575  1.00057241  0.00168079  1
  Ni  Ni10  1  0.50032905  0.16699571  0.16831007  1
  Fe  Fe11  1  0.33385241  1.00051908  0.33399455  1
  Ni  Ni12  1  0.33263260  0.33415824  1.00062484  1
  Ni  Ni13  1  0.49888998  0.50175028  0.16820204  1
  Ni  Ni14  1  0.33409761  0.33483742  0.33396701  1
  Ni  Ni15  1  0.33394633  0.66752622  1.00061744  1
  Ni  Ni16  1  0.50142119  0.83346082  0.16722380  1
  Ni  Ni17  1  0.33393611  0.66680441  0.33421414  1
  Ni  Ni18  1  0.66749158  0.99929926  1.00062484  1
  Ni  Ni19  1  0.83508361  0.16555664  0.16820204  1
  Ni  Ni20  1  0.66817075  0.00076428  0.33396701  1
  Cr  Cr21  1  0.66704506  0.33371173  0.00086177  1
  Fe  Fe22  1  0.83501889  0.50168555  0.16847922  1
  Ni  Ni23  1  0.66679891  0.33346557  0.33434013  1
  Ni  Ni24  1  0.66706579  0.66931203  0.00101289  1
  Ni  Ni25  1  0.83403652  0.83487834  0.16716474  1
  Ni  Ni26  1  0.66680414  0.66804247  0.33390253  1
  Ni  Ni27  1  0.16707975  0.16792058  0.50047294  1
  Ni  Ni28  1  0.00099008  1.00056940  0.66743144  1
  Ni  Ni29  1  0.16731182  0.16758197  0.83455576  1
  Ni  Ni30  1  0.16750001  0.50058216  0.50090531  1
  Ni  Ni31  1  0.00086739  0.33397842  0.66731291  1
  Ni  Ni32  1  0.16736087  0.50069026  0.83420162  1
  Ni  Ni33  1  0.16706817  0.83373483  0.50047886  1
  Ni  Ni34  1  0.00102752  0.66769419  0.66708290  1
  Ni  Ni35  1  0.16730941  0.83397608  0.83432114  1
  Ni  Ni36  1  0.50105867  0.16772534  0.50046664  1
  Ni  Ni37  1  0.33390372  1.00057038  0.66671876  1
  Ni  Ni38  1  0.49977919  0.16644586  0.83345492  1
  Ni  Ni39  1  0.50066449  0.50076636  0.50088951  1
  Ni  Ni40  1  0.33407588  0.33401639  0.66767203  1
  Ni  Ni41  1  0.49978803  0.50181940  0.83315490  1
  Ni  Ni42  1  0.50125391  0.83374642  0.50047294  1
  Ni  Ni43  1  0.33390274  0.66765675  0.66743144  1
  Ni  Ni44  1  0.50091530  0.83397849  0.83455576  1
  Ni  Ni45  1  0.83409970  0.16733115  0.50088951  1
  Ni  Ni46  1  0.66734972  1.00074254  0.66767203  1
  Ni  Ni47  1  0.83515274  0.16645469  0.83315490  1
  Ni  Ni48  1  0.83409997  0.50076664  0.49983306  1
  Ni  Ni49  1  0.66730959  0.33397625  0.66688051  1
  Ni  Ni50  1  0.83514851  0.50181518  0.83385767  1
  Ni  Ni51  1  0.83391550  0.83416668  0.50090531  1
  Ni  Ni52  1  0.66731175  0.66753405  0.66731291  1
  Ni  Ni53  1  0.83402359  0.83402753  0.83420162  1
" 