763,Ni95Fe2Cr2_19,-239.066402920643, 178.035597264926,Ni95Fe2Cr2,"# generated using pymatgen
 data_Cr2FeNi51
_symmetry_space_group_name_H-M   'P 1'
_cell_length_a   7.46120254
_cell_length_b   7.46120254
_cell_length_c   10.55173383
_cell_angle_alpha   90.00000000
_cell_angle_beta   90.00000000
_cell_angle_gamma   90.00000000
_symmetry_Int_Tables_number   1
_chemical_formula_structural   Cr2FeNi51
_chemical_formula_sum   'Cr2 Fe1 Ni51'
_cell_volume   587.41020377
_cell_formula_units_Z   1
loop_
 _symmetry_equiv_pos_site_id
 _symmetry_equiv_pos_as_xyz
  1  'x, y, z'
loop_
 _atom_site_type_symbol
 _atom_site_label
 _atom_site_symmetry_multiplicity
 _atom_site_fract_x
 _atom_site_fract_y
 _atom_site_fract_z
 _atom_site_occupancy
  Ni  Ni0  1  0.00064478  0.00056432  0.00051824  1
  Ni  Ni1  1  0.16668865  0.16698103  0.16703144  1
  Ni  Ni2  1  0.00090943  0.00076433  0.33366446  1
  Ni  Ni3  1  1.00030548  0.33387059  1.00038887  1
  Ni  Ni4  1  0.16684660  0.50032381  0.16725054  1
  Ni  Ni5  1  0.99959538  0.33380071  0.33389714  1
  Ni  Ni6  1  0.00064226  0.66674212  0.00051478  1
  Ni  Ni7  1  0.16691072  0.83384024  0.16675664  1
  Ni  Ni8  1  0.00092891  0.66659472  0.33389671  1
  Ni  Ni9  1  0.33283731  0.00131927  0.00121514  1
  Ni  Ni10  1  0.50047296  0.16697075  0.16702063  1
  Ni  Ni11  1  0.33378603  0.99960642  0.33389815  1
  Ni  Ni12  1  0.33378384  0.33371224  0.00085322  1
  Ni  Ni13  1  0.50048181  0.50050396  0.16657894  1
  Fe  Fe14  1  0.33291834  0.33278319  0.33286975  1
  Ni  Ni15  1  0.33268107  0.66613735  0.00122399  1
  Ni  Ni16  1  0.50041021  0.83368508  0.16741457  1
  Ni  Ni17  1  0.33268405  0.66891152  0.33282785  1
  Ni  Ni18  1  0.66769568  0.00167752  0.00159867  1
  Ni  Ni19  1  0.83398793  0.16703860  0.16698042  1
  Ni  Ni20  1  0.66646406  0.00094088  0.33389681  1
  Ni  Ni21  1  0.66706571  0.33371402  1.00017027  1
  Ni  Ni22  1  0.83383610  0.50026175  0.16720750  1
  Ni  Ni23  1  0.66878640  0.33269411  0.33282187  1
  Ni  Ni24  1  0.66785421  0.66579461  0.00159074  1
  Ni  Ni25  1  0.83385579  0.83387325  0.16707329  1
  Ni  Ni26  1  0.66754224  0.66751149  0.33282508  1
  Ni  Ni27  1  0.16664366  0.16694060  0.50040763  1
  Ni  Ni28  1  0.00064014  0.00055719  0.66699545  1
  Ni  Ni29  1  0.16686055  0.16721500  0.83374656  1
  Ni  Ni30  1  0.16522664  0.50035353  0.50043113  1
  Ni  Ni31  1  1.00032295  0.33380538  0.66686328  1
  Ni  Ni32  1  0.16703340  0.50009218  0.83351809  1
  Ni  Ni33  1  0.16689933  0.83386183  0.50066355  1
  Ni  Ni34  1  0.00063935  0.66681112  0.66676138  1
  Ni  Ni35  1  0.16520101  0.83387003  0.83374288  1
  Ni  Ni36  1  0.50050333  0.16532239  0.50067634  1
  Ni  Ni37  1  0.33278185  0.00134658  0.66604383  1
  Ni  Ni38  1  0.50026294  0.16882266  0.83350707  1
  Cr  Cr39  1  0.50056885  0.50055325  0.50073398  1
  Ni  Ni40  1  0.33277850  0.33268122  0.66745283  1
  Ni  Ni41  1  0.50026338  0.49867942  0.83394741  1
  Ni  Ni42  1  0.50039287  0.83523578  0.50022927  1
  Ni  Ni43  1  0.33166585  0.66711176  0.66708756  1
  Cr  Cr44  1  0.50049483  0.83374077  0.83351339  1
  Ni  Ni45  1  0.83401767  0.16702239  0.50043629  1
  Ni  Ni46  1  0.66775274  0.00168324  0.66568461  1
  Ni  Ni47  1  0.83405100  0.16697161  0.83374579  1
  Ni  Ni48  1  0.83539430  0.50024676  0.50043210  1
  Ni  Ni49  1  0.66803510  0.33267053  0.66814056  1
  Ni  Ni50  1  0.83387499  0.50033502  0.83351411  1
  Ni  Ni51  1  0.83387825  0.83389686  0.50036126  1
  Ni  Ni52  1  0.66888416  0.66683604  0.66678536  1
  Ni  Ni53  1  0.83546807  0.83387066  0.83374425  1
" 