6796,Ni95Fe3Cr1_7,-239.031569594311, 177.791985423936,Ni95Fe3Cr1,"# generated using pymatgen
 data_Cr2FeNi51
_symmetry_space_group_name_H-M   'P 1'
_cell_length_a   7.46142638
_cell_length_b   7.46142638
_cell_length_c   10.55205038
_cell_angle_alpha   90.00000000
_cell_angle_beta   90.00000000
_cell_angle_gamma   90.00000000
_symmetry_Int_Tables_number   1
_chemical_formula_structural   Cr2FeNi51
_chemical_formula_sum   'Cr2 Fe1 Ni51'
_cell_volume   587.46307232
_cell_formula_units_Z   1
loop_
 _symmetry_equiv_pos_site_id
 _symmetry_equiv_pos_as_xyz
  1  'x, y, z'
loop_
 _atom_site_type_symbol
 _atom_site_label
 _atom_site_symmetry_multiplicity
 _atom_site_fract_x
 _atom_site_fract_y
 _atom_site_fract_z
 _atom_site_occupancy
  Ni  Ni0  1  0.00147605  0.99931018  0.00143543  1
  Ni  Ni1  1  0.16677090  0.16802561  0.16596831  1
  Ni  Ni2  1  0.99886109  1.00030614  0.33371339  1
  Ni  Ni3  1  0.00132381  0.33495089  0.00117348  1
  Ni  Ni4  1  0.16673278  0.49998887  0.16723398  1
  Ni  Ni5  1  1.00030252  0.33398984  0.33374893  1
  Ni  Ni6  1  1.00016322  0.66689435  1.00012366  1
  Ni  Ni7  1  0.16566117  0.83307962  0.16619216  1
  Ni  Ni8  1  1.00007659  0.66687006  0.33378190  1
  Ni  Ni9  1  0.33371002  0.00044821  0.99991359  1
  Ni  Ni10  1  0.50064913  0.16802561  0.16596831  1
  Cr  Cr11  1  0.33371002  1.00020457  0.33408832  1
  Ni  Ni12  1  0.33371002  0.33362748  1.00033629  1
  Ni  Ni13  1  0.50068726  0.49998887  0.16723398  1
  Ni  Ni14  1  0.33371002  0.33511219  0.33377147  1
  Ni  Ni15  1  0.33371002  0.66706212  0.00087611  1
  Ni  Ni16  1  0.50175887  0.83307962  0.16619216  1
  Ni  Ni17  1  0.33371002  0.66541147  0.33347286  1
  Ni  Ni18  1  0.66594399  0.99931018  0.00143543  1
  Fe  Fe19  1  0.83371002  0.16722540  0.16737346  1
  Ni  Ni20  1  0.66855895  1.00030614  0.33371339  1
  Ni  Ni21  1  0.66609623  0.33495089  0.00117348  1
  Ni  Ni22  1  0.83371002  0.50117641  0.16678149  1
  Ni  Ni23  1  0.66711752  0.33398984  0.33374893  1
  Ni  Ni24  1  0.66725682  0.66689435  1.00012366  1
  Ni  Ni25  1  0.83371002  0.83309409  0.16701243  1
  Ni  Ni26  1  0.66734345  0.66687006  0.33378190  1
  Ni  Ni27  1  0.16603955  0.16807381  0.50153876  1
  Ni  Ni28  1  0.00133480  0.99945812  0.66590007  1
  Ni  Ni29  1  0.16865805  0.16705866  0.83368770  1
  Ni  Ni30  1  0.16702282  0.50027677  0.49989363  1
  Ni  Ni31  1  0.00114495  0.33478019  0.66614874  1
  Ni  Ni32  1  0.16711689  0.50030661  0.83399922  1
  Ni  Ni33  1  0.16589754  0.83275142  0.50098581  1
  Ni  Ni34  1  1.00026666  0.66689947  0.66723507  1
  Ni  Ni35  1  0.16695797  0.83376588  0.83399996  1
  Ni  Ni36  1  0.50138049  0.16807381  0.50153876  1
  Ni  Ni37  1  0.33371002  1.00034124  0.66743507  1
  Ni  Ni38  1  0.49876199  0.16705866  0.83368770  1
  Ni  Ni39  1  0.50039722  0.50027677  0.49989363  1
  Ni  Ni40  1  0.33371002  0.33372389  0.66700833  1
  Ni  Ni41  1  0.50030315  0.50030661  0.83399922  1
  Ni  Ni42  1  0.50152250  0.83275142  0.50098581  1
  Ni  Ni43  1  0.33371002  0.66706922  0.66677338  1
  Ni  Ni44  1  0.50046207  0.83376588  0.83399996  1
  Ni  Ni45  1  0.83371002  0.16696326  0.49934663  1
  Ni  Ni46  1  0.66608524  0.99945812  0.66590007  1
  Cr  Cr47  1  0.83371002  0.16692597  0.83411216  1
  Ni  Ni48  1  0.83371002  0.50042417  0.50068451  1
  Ni  Ni49  1  0.66627509  0.33478019  0.66614874  1
  Ni  Ni50  1  0.83371002  0.50200386  0.83368893  1
  Ni  Ni51  1  0.83371002  0.83373305  0.50045907  1
  Ni  Ni52  1  0.66715338  0.66689947  0.66723507  1
  Ni  Ni53  1  0.83371002  0.83222151  0.83368656  1
" 