264,Ni95Fe3Cr0_0,-240.096199940991, 182.925836837532,Ni95Fe3Cr0,"# generated using pymatgen
 data_CrFe2Ni51
_symmetry_space_group_name_H-M   'P 1'
_cell_length_a   7.45582429
_cell_length_b   7.45582429
_cell_length_c   10.54412783
_cell_angle_alpha   90.00000000
_cell_angle_beta   90.00000000
_cell_angle_gamma   90.00000000
_symmetry_Int_Tables_number   1
_chemical_formula_structural   CrFe2Ni51
_chemical_formula_sum   'Cr1 Fe2 Ni51'
_cell_volume   586.14085272
_cell_formula_units_Z   1
loop_
 _symmetry_equiv_pos_site_id
 _symmetry_equiv_pos_as_xyz
  1  'x, y, z'
loop_
 _atom_site_type_symbol
 _atom_site_label
 _atom_site_symmetry_multiplicity
 _atom_site_fract_x
 _atom_site_fract_y
 _atom_site_fract_z
 _atom_site_occupancy
  Ni  Ni0  1  0.00083960  0.99999070  0.00078186  1
  Ni  Ni1  1  0.16683556  0.16659594  0.16750777  1
  Ni  Ni2  1  0.00084191  0.00077334  0.33416838  1
  Fe  Fe3  1  1.00071851  0.33388051  0.00088804  1
  Ni  Ni4  1  0.16696526  0.50138379  0.16725549  1
  Ni  Ni5  1  0.00077165  0.33424626  0.33350640  1
  Ni  Ni6  1  0.00083773  0.66799671  1.00054822  1
  Ni  Ni7  1  0.16810001  0.83426770  0.16752615  1
  Ni  Ni8  1  0.00083341  0.66724825  0.33416285  1
  Ni  Ni9  1  0.33361379  0.00130632  1.00050692  1
  Ni  Ni10  1  0.50127444  0.16685716  0.16729918  1
  Ni  Ni11  1  0.33400738  0.00101758  0.33386612  1
  Ni  Ni12  1  0.33382459  0.33307569  0.00188392  1
  Ni  Ni13  1  0.50127131  0.50130228  0.16772478  1
  Ni  Ni14  1  0.33414212  0.33407082  0.33387350  1
  Ni  Ni15  1  0.33257021  0.66787926  0.00154635  1
  Ni  Ni16  1  0.49999163  0.83408456  0.16694836  1
  Ni  Ni17  1  0.33382844  0.66716874  0.33386517  1
  Ni  Ni18  1  0.66781890  0.00137646  1.00055658  1
  Ni  Ni19  1  0.83413040  0.16794151  0.16751924  1
  Ni  Ni20  1  0.66743757  0.00106881  0.33380006  1
  Ni  Ni21  1  0.66760517  0.33311586  0.00152230  1
  Ni  Ni22  1  0.83398995  0.50007231  0.16725640  1
  Ni  Ni23  1  0.66734926  0.33406901  0.33421358  1
  Ni  Ni24  1  0.66892737  0.66784894  0.00163527  1
  Fe  Fe25  1  0.83433896  0.83430765  0.16751336  1
  Ni  Ni26  1  0.66762457  0.66712615  0.33379024  1
  Ni  Ni27  1  0.16686683  0.16714180  0.50042673  1
  Ni  Ni28  1  1.00061461  1.00053912  0.66730335  1
  Ni  Ni29  1  0.16702833  0.16694118  0.83439612  1
  Ni  Ni30  1  0.16703433  0.50086321  0.50066079  1
  Ni  Ni31  1  0.00088067  0.33415432  0.66824711  1
  Ni  Ni32  1  0.16557909  0.50101256  0.83443862  1
  Ni  Ni33  1  0.16744977  0.83425827  0.50077040  1
  Ni  Ni34  1  1.00061329  0.66757240  0.66753314  1
  Ni  Ni35  1  0.16733700  0.83426120  0.83395040  1
  Ni  Ni36  1  0.50100039  0.16703962  0.50065804  1
  Ni  Ni37  1  0.33390453  0.00112847  0.66789705  1
  Ni  Ni38  1  0.50099705  0.16561325  0.83431860  1
  Ni  Ni39  1  0.50100196  0.50113288  0.50022421  1
  Ni  Ni40  1  0.33307405  0.33300443  0.66643336  1
  Cr  Cr41  1  0.50093862  0.50125408  0.83391864  1
  Ni  Ni42  1  0.50068368  0.83407835  0.50101529  1
  Ni  Ni43  1  0.33274040  0.66813342  0.66676879  1
  Ni  Ni44  1  0.50067573  0.83570049  0.83429418  1
  Ni  Ni45  1  0.83439368  0.16745859  0.50077338  1
  Ni  Ni46  1  0.66773812  0.00086038  0.66789790  1
  Ni  Ni47  1  0.83420864  0.16725675  0.83402875  1
  Ni  Ni48  1  0.83421716  0.50054655  0.50101417  1
  Ni  Ni49  1  0.66829114  0.33301270  0.66644266  1
  Ni  Ni50  1  0.83562845  0.50069591  0.83406834  1
  Ni  Ni51  1  0.83412533  0.83425569  0.50006249  1
  Ni  Ni52  1  0.66889303  0.66839380  0.66677632  1
  Ni  Ni53  1  0.83423774  0.83426159  0.83465805  1
" 