4244,Ni95Fe3Cr1_10,-239.0402382715, 177.975613524384,Ni95Fe3Cr1,"# generated using pymatgen
 data_Cr2FeNi51
_symmetry_space_group_name_H-M   'P 1'
_cell_length_a   7.46194628
_cell_length_b   7.46194628
_cell_length_c   10.55278563
_cell_angle_alpha   90.00000000
_cell_angle_beta   90.00000000
_cell_angle_gamma   90.00000000
_symmetry_Int_Tables_number   1
_chemical_formula_structural   Cr2FeNi51
_chemical_formula_sum   'Cr2 Fe1 Ni51'
_cell_volume   587.58588181
_cell_formula_units_Z   1
loop_
 _symmetry_equiv_pos_site_id
 _symmetry_equiv_pos_as_xyz
  1  'x, y, z'
loop_
 _atom_site_type_symbol
 _atom_site_label
 _atom_site_symmetry_multiplicity
 _atom_site_fract_x
 _atom_site_fract_y
 _atom_site_fract_z
 _atom_site_occupancy
  Ni  Ni0  1  0.00034375  0.00034501  1.00034066  1
  Ni  Ni1  1  0.16721232  0.16518339  0.16721466  1
  Ni  Ni2  1  0.00034283  0.00035916  0.33365544  1
  Ni  Ni3  1  0.99953098  0.33286431  0.99953094  1
  Cr  Cr4  1  0.16715551  0.50048885  0.16715775  1
  Ni  Ni5  1  0.99953148  0.33286482  0.33449599  1
  Ni  Ni6  1  0.99953121  0.66781581  0.99953121  1
  Ni  Ni7  1  0.16698628  0.83529524  0.16698928  1
  Ni  Ni8  1  0.99953170  0.66780059  0.33446386  1
  Ni  Ni9  1  0.33367861  1.00033629  1.00034083  1
  Ni  Ni10  1  0.50046723  0.16690476  0.16698975  1
  Ni  Ni11  1  0.33357744  0.00043732  0.33358289  1
  Ni  Ni12  1  0.33448248  0.33286454  0.99953121  1
  Ni  Ni13  1  0.50196190  0.50031962  0.16698928  1
  Ni  Ni14  1  0.33446726  0.33286504  0.33446386  1
  Ni  Ni15  1  0.33449095  0.66782428  0.99953148  1
  Ni  Ni16  1  0.50046718  0.83380051  0.16742999  1
  Ni  Ni17  1  0.33439018  0.66772351  0.33439252  1
  Ni  Ni18  1  0.66700302  1.00033635  0.00046727  1
  Ni  Ni19  1  0.83334590  0.16667923  0.16721448  1
  Ni  Ni20  1  0.66710437  0.00043771  0.33345607  1
  Ni  Ni21  1  0.66701168  0.33367709  1.00034066  1
  Ni  Ni22  1  0.83185006  0.50054566  0.16721466  1
  Ni  Ni23  1  0.66702582  0.33367616  0.33365544  1
  Ni  Ni24  1  0.66700296  0.66701194  1.00034083  1
  Ni  Ni25  1  0.83357143  0.83380057  0.16698975  1
  Ni  Ni26  1  0.66710399  0.66691078  0.33358289  1
  Ni  Ni27  1  0.16742580  0.16658925  0.50034082  1
  Ni  Ni28  1  0.00195983  0.00035857  0.66702863  1
  Ni  Ni29  1  0.16721206  0.16680256  0.83346998  1
  Ni  Ni30  1  0.16742504  0.50075837  0.50046720  1
  Ni  Ni31  1  0.00046729  0.33380062  0.66699804  1
  Ni  Ni32  1  0.16721214  0.50054547  0.83334357  1
  Ni  Ni33  1  0.16640609  0.83367713  0.50034070  1
  Ni  Ni34  1  0.00046597  0.66686598  0.66702891  1
  Ni  Ni35  1  0.16698711  0.83367724  0.83369437  1
  Ni  Ni36  1  0.49953173  0.16842387  0.49953172  1
  Ni  Ni37  1  0.33195817  0.00043865  0.66710298  1
  Ni  Ni38  1  0.49953109  0.16783908  0.83450275  1
  Ni  Ni39  1  0.50034379  0.49973942  0.50034070  1
  Ni  Ni40  1  0.33353264  0.33379930  0.66702891  1
  Ni  Ni41  1  0.50034391  0.50032045  0.83369437  1
  Fe  Fe42  1  0.49953005  0.83286338  0.49953033  1
  Ni  Ni43  1  0.33345374  0.66678707  0.66710203  1
  Ni  Ni44  1  0.49953136  0.83286470  0.83406250  1
  Ni  Ni45  1  0.83406752  0.16740085  0.49953136  1
  Cr  Cr46  1  0.66716976  0.00050310  0.66716753  1
  Ni  Ni47  1  0.83428284  0.16761617  0.83428050  1
  Ni  Ni48  1  0.83325591  0.50075914  0.50034082  1
  Ni  Ni49  1  0.66702524  0.33529317  0.66702863  1
  Ni  Ni50  1  0.83346923  0.50054539  0.83346998  1
  Ni  Ni51  1  0.83509054  0.83286507  0.49953172  1
  Ni  Ni52  1  0.66710531  0.66529151  0.66710298  1
  Ni  Ni53  1  0.83450575  0.83286442  0.83450275  1
" 