1251,Ni95Fe2Cr2_9,-239.03152034908, 177.388303433028,Ni95Fe2Cr2,"# generated using pymatgen
 data_Cr2FeNi51
_symmetry_space_group_name_H-M   'P 1'
_cell_length_a   7.46238489
_cell_length_b   7.46238489
_cell_length_c   10.55340592
_cell_angle_alpha   90.00000000
_cell_angle_beta   90.00000000
_cell_angle_gamma   90.00000000
_symmetry_Int_Tables_number   1
_chemical_formula_structural   Cr2FeNi51
_chemical_formula_sum   'Cr2 Fe1 Ni51'
_cell_volume   587.68950247
_cell_formula_units_Z   1
loop_
 _symmetry_equiv_pos_site_id
 _symmetry_equiv_pos_as_xyz
  1  'x, y, z'
loop_
 _atom_site_type_symbol
 _atom_site_label
 _atom_site_symmetry_multiplicity
 _atom_site_fract_x
 _atom_site_fract_y
 _atom_site_fract_z
 _atom_site_occupancy
  Ni  Ni0  1  1.00020846  1.00017350  0.00031828  1
  Ni  Ni1  1  0.16757373  0.16847707  0.16638860  1
  Cr  Cr2  1  1.00013828  0.00183116  0.33381835  1
  Ni  Ni3  1  1.00029343  0.33364575  0.00078346  1
  Ni  Ni4  1  0.16757373  0.49881443  0.16638860  1
  Ni  Ni5  1  1.00029421  0.33364575  0.33366664  1
  Ni  Ni6  1  1.00020846  0.66711799  0.00031828  1
  Fe  Fe7  1  0.16879117  0.83364575  0.16517038  1
  Cr  Cr8  1  1.00013828  0.66546034  0.33381835  1
  Ni  Ni9  1  0.33345006  0.00035958  0.00051564  1
  Ni  Ni10  1  0.49985362  0.16627658  0.16722467  1
  Ni  Ni11  1  0.33567659  0.00055482  0.33374857  1
  Ni  Ni12  1  0.33355148  0.33364575  0.00040876  1
  Ni  Ni13  1  0.49985362  0.50101491  0.16722467  1
  Ni  Ni14  1  0.33393989  0.33364575  0.33366701  1
  Ni  Ni15  1  0.33345006  0.66693192  0.00051564  1
  Ni  Ni16  1  0.50097085  0.83364575  0.16747030  1
  Ni  Ni17  1  0.33567659  0.66673667  0.33374857  1
  Ni  Ni18  1  0.66727983  1.00027467  0.00059619  1
  Ni  Ni19  1  0.83351050  0.16735852  0.16638846  1
  Ni  Ni20  1  0.66505474  0.00046875  0.33366686  1
  Ni  Ni21  1  0.66709239  0.33364575  0.00043774  1
  Ni  Ni22  1  0.83351050  0.49993298  0.16638846  1
  Ni  Ni23  1  0.66670354  0.33364575  0.33363864  1
  Ni  Ni24  1  0.66727983  0.66701682  0.00059619  1
  Ni  Ni25  1  0.83130516  0.83364575  0.16530365  1
  Ni  Ni26  1  0.66505474  0.66682275  0.33366686  1
  Ni  Ni27  1  0.16757397  0.16783995  0.50092178  1
  Ni  Ni28  1  0.00031612  1.00006577  0.66687087  1
  Ni  Ni29  1  0.16697600  0.16700181  0.83362564  1
  Ni  Ni30  1  0.16757397  0.49945155  0.50092178  1
  Ni  Ni31  1  1.00031097  0.33364575  0.66648623  1
  Ni  Ni32  1  0.16697600  0.50028968  0.83362564  1
  Ni  Ni33  1  0.16865932  0.83364575  0.50152453  1
  Ni  Ni34  1  0.00031612  0.66722572  0.66687087  1
  Ni  Ni35  1  0.16697853  0.83364575  0.83410749  1
  Ni  Ni36  1  0.50008833  0.16651109  0.49984090  1
  Ni  Ni37  1  0.33334233  1.00025190  0.66667359  1
  Ni  Ni38  1  0.50008819  0.16675206  0.83387167  1
  Ni  Ni39  1  0.50008833  0.50078040  0.49984090  1
  Ni  Ni40  1  0.33353383  0.33364575  0.66686097  1
  Ni  Ni41  1  0.50008819  0.50053944  0.83387167  1
  Ni  Ni42  1  0.50033497  0.83364575  0.49984058  1
  Ni  Ni43  1  0.33334233  0.66703959  0.66667359  1
  Ni  Ni44  1  0.50033577  0.83364575  0.83362536  1
  Ni  Ni45  1  0.83327469  0.16759452  0.50067764  1
  Ni  Ni46  1  0.66727881  1.00025707  0.66667351  1
  Ni  Ni47  1  0.83387301  0.16675459  0.83387157  1
  Ni  Ni48  1  0.83327469  0.49969697  0.50067764  1
  Ni  Ni49  1  0.66709238  0.33364575  0.66686099  1
  Ni  Ni50  1  0.83387301  0.50053691  0.83387157  1
  Ni  Ni51  1  0.83194436  0.83364575  0.50200617  1
  Ni  Ni52  1  0.66727881  0.66703442  0.66667351  1
  Ni  Ni53  1  0.83362358  0.83364575  0.83362592  1
" 