6777,Ni95Fe3Cr1_0,-239.01280604367, 177.389839109267,Ni95Fe3Cr1,"# generated using pymatgen
 data_Cr2FeNi51
_symmetry_space_group_name_H-M   'P 1'
_cell_length_a   7.46211510
_cell_length_b   7.46211510
_cell_length_c   10.55302439
_cell_angle_alpha   90.00000000
_cell_angle_beta   90.00000000
_cell_angle_gamma   90.00000000
_symmetry_Int_Tables_number   1
_chemical_formula_structural   Cr2FeNi51
_chemical_formula_sum   'Cr2 Fe1 Ni51'
_cell_volume   587.62576474
_cell_formula_units_Z   1
loop_
 _symmetry_equiv_pos_site_id
 _symmetry_equiv_pos_as_xyz
  1  'x, y, z'
loop_
 _atom_site_type_symbol
 _atom_site_label
 _atom_site_symmetry_multiplicity
 _atom_site_fract_x
 _atom_site_fract_y
 _atom_site_fract_z
 _atom_site_occupancy
  Ni  Ni0  1  0.00061080  1.00008245  1.00003063  1
  Ni  Ni1  1  0.16702113  0.16715828  0.16718249  1
  Ni  Ni2  1  0.00280632  1.00011390  0.33201919  1
  Ni  Ni3  1  0.00044286  0.33392611  1.00003131  1
  Ni  Ni4  1  0.16744649  0.50046119  0.16694598  1
  Ni  Ni5  1  0.00152871  0.33495881  0.33325279  1
  Ni  Ni6  1  1.00013143  0.66698248  0.00036968  1
  Ni  Ni7  1  0.16726612  0.83337428  0.16718993  1
  Ni  Ni8  1  0.00122886  0.66593462  0.33289506  1
  Ni  Ni9  1  0.33366384  0.00039626  0.00037097  1
  Ni  Ni10  1  0.50030655  0.16715828  0.16718249  1
  Ni  Ni11  1  0.33366384  0.00040833  0.33395817  1
  Ni  Ni12  1  0.33366384  0.33345005  0.00036836  1
  Ni  Ni13  1  0.49988118  0.50046119  0.16694598  1
  Ni  Ni14  1  0.33366384  0.33352248  0.33373153  1
  Ni  Ni15  1  0.33366384  0.66714792  0.99966669  1
  Ni  Ni16  1  0.50006156  0.83337428  0.16718993  1
  Ni  Ni17  1  0.33366384  0.66706844  0.33443294  1
  Ni  Ni18  1  0.66671687  1.00008245  1.00003063  1
  Ni  Ni19  1  0.83366384  0.16698341  0.16698168  1
  Ni  Ni20  1  0.66452135  1.00011390  0.33201919  1
  Ni  Ni21  1  0.66688482  0.33392611  1.00003131  1
  Ni  Ni22  1  0.83366384  0.50021327  0.16742617  1
  Ni  Ni23  1  0.66579896  0.33495881  0.33325279  1
  Ni  Ni24  1  0.66719625  0.66698248  0.00036968  1
  Ni  Ni25  1  0.83366384  0.83379215  0.16698028  1
  Ni  Ni26  1  0.66609881  0.66593462  0.33289506  1
  Ni  Ni27  1  0.16878542  0.16718720  0.50024950  1
  Ni  Ni28  1  0.00305368  0.99977964  0.66890213  1
  Ni  Ni29  1  0.16712479  0.16716361  0.83354406  1
  Ni  Ni30  1  0.16729010  0.50025677  0.50031401  1
  Ni  Ni31  1  0.00182368  0.33525191  0.66771684  1
  Ni  Ni32  1  0.16718854  0.50021194  0.83378100  1
  Ni  Ni33  1  0.16877397  0.83350783  0.50035223  1
  Ni  Ni34  1  0.00046046  0.66598678  0.66767555  1
  Ni  Ni35  1  0.16704793  0.83360001  0.83352303  1
  Ni  Ni36  1  0.49854225  0.16718720  0.50024950  1
  Ni  Ni37  1  0.33366384  0.00108177  0.66665000  1
  Ni  Ni38  1  0.50020288  0.16716361  0.83354406  1
  Ni  Ni39  1  0.50003758  0.50025677  0.50031401  1
  Ni  Ni40  1  0.33366384  0.33272829  0.66688259  1
  Ni  Ni41  1  0.50013913  0.50021194  0.83378100  1
  Ni  Ni42  1  0.49855370  0.83350783  0.50035223  1
  Fe  Fe43  1  0.33366384  0.66680563  0.66717630  1
  Ni  Ni44  1  0.50027974  0.83360001  0.83352303  1
  Cr  Cr45  1  0.83366384  0.16842191  0.50057634  1
  Ni  Ni46  1  0.66427400  0.99977964  0.66890213  1
  Ni  Ni47  1  0.83366384  0.16699117  0.83343601  1
  Ni  Ni48  1  0.83366384  0.50037147  0.50026087  1
  Ni  Ni49  1  0.66550400  0.33525191  0.66771684  1
  Ni  Ni50  1  0.83366384  0.50030979  0.83331510  1
  Cr  Cr51  1  0.83366384  0.83259444  0.49992526  1
  Ni  Ni52  1  0.66686722  0.66598678  0.66767555  1
  Ni  Ni53  1  0.83366384  0.83368477  0.83375713  1
" 