8848,Ni95Fe3Cr1_1,-239.054446288033, 177.641775029671,Ni95Fe3Cr1,"# generated using pymatgen
 data_Cr2FeNi51
_symmetry_space_group_name_H-M   'P 1'
_cell_length_a   7.46300746
_cell_length_b   7.46300746
_cell_length_c   10.55428637
_cell_angle_alpha   90.00000000
_cell_angle_beta   90.00000000
_cell_angle_gamma   90.00000000
_symmetry_Int_Tables_number   1
_chemical_formula_structural   Cr2FeNi51
_chemical_formula_sum   'Cr2 Fe1 Ni51'
_cell_volume   587.83660353
_cell_formula_units_Z   1
loop_
 _symmetry_equiv_pos_site_id
 _symmetry_equiv_pos_as_xyz
  1  'x, y, z'
loop_
 _atom_site_type_symbol
 _atom_site_label
 _atom_site_symmetry_multiplicity
 _atom_site_fract_x
 _atom_site_fract_y
 _atom_site_fract_z
 _atom_site_occupancy
  Ni  Ni0  1  0.00111859  0.99944021  0.00124266  1
  Ni  Ni1  1  0.16670634  0.16693780  0.16715942  1
  Ni  Ni2  1  1.00016597  1.00016544  0.33336276  1
  Ni  Ni3  1  0.00111877  0.33420407  0.00086083  1
  Ni  Ni4  1  0.16688134  0.50024859  0.16686089  1
  Ni  Ni5  1  1.00016646  0.33347744  0.33374534  1
  Ni  Ni6  1  1.00002953  0.66716816  0.99978776  1
  Ni  Ni7  1  0.16688993  0.83362697  0.16686152  1
  Ni  Ni8  1  1.00024338  0.66717054  0.33382329  1
  Ni  Ni9  1  0.33336512  0.00051451  0.99978789  1
  Ni  Ni10  1  0.50052788  0.16692880  0.16667293  1
  Ni  Ni11  1  0.33347822  1.00017319  0.33374448  1
  Ni  Ni12  1  0.33354879  0.33331220  0.99997456  1
  Ni  Ni13  1  0.50009487  0.50000067  0.16710920  1
  Ni  Ni14  1  0.33366250  0.33365389  0.33355677  1
  Ni  Ni15  1  0.33356249  0.66698490  1.00021784  1
  Ni  Ni16  1  0.50009527  0.83388284  0.16710879  1
  Ni  Ni17  1  0.33357571  0.66698639  0.33363495  1
  Ni  Ni18  1  0.66632737  0.99942387  0.00086201  1
  Ni  Ni19  1  0.83357902  0.16693760  0.16705590  1
  Ni  Ni20  1  0.66716951  1.00025160  0.33382274  1
  Ni  Ni21  1  0.66614589  0.33440161  0.00104695  1
  Ni  Ni22  1  0.83383537  0.49981577  0.16692062  1
  Ni  Ni23  1  0.66698629  0.33357548  0.33363535  1
  Ni  Ni24  1  0.66722033  0.66698422  0.99997454  1
  Ni  Ni25  1  0.83382634  0.83405822  0.16692107  1
  Ni  Ni26  1  0.66699332  0.66698466  0.33367560  1
  Fe  Fe27  1  0.16779256  0.16783781  0.49942577  1
  Cr  Cr28  1  0.00094968  0.99924450  0.66626352  1
  Ni  Ni29  1  0.16953626  0.16777673  0.83396916  1
  Ni  Ni30  1  0.16665419  0.50088439  0.50056696  1
  Ni  Ni31  1  0.00100584  0.33630563  0.66620641  1
  Ni  Ni32  1  0.16684069  0.50043394  0.83338407  1
  Ni  Ni33  1  0.16772617  0.83215135  0.49949701  1
  Ni  Ni34  1  1.00001828  0.66517516  0.66720027  1
  Ni  Ni35  1  0.16791499  0.83260462  0.83445374  1
  Ni  Ni36  1  0.50116596  0.16670245  0.50075344  1
  Ni  Ni37  1  0.33547519  0.00040062  0.66727892  1
  Ni  Ni38  1  0.49852665  0.16670240  0.83338474  1
  Ni  Ni39  1  0.49986213  0.49976676  0.50032350  1
  Ni  Ni40  1  0.33384709  0.33361118  0.66727754  1
  Ni  Ni41  1  0.49991050  0.50018546  0.83338008  1
  Ni  Ni42  1  0.49986036  0.83434402  0.50056660  1
  Ni  Ni43  1  0.33375987  0.66680190  0.66695811  1
  Ni  Ni44  1  0.49990946  0.83392364  0.83313727  1
  Ni  Ni45  1  0.83210483  0.16777575  0.49929914  1
  Ni  Ni46  1  0.66434188  0.99941394  0.66612933  1
  Cr  Cr47  1  0.83253339  0.16779255  0.83466114  1
  Ni  Ni48  1  0.83429564  0.49958309  0.50075307  1
  Ni  Ni49  1  0.66596492  0.33459875  0.66613046  1
  Ni  Ni50  1  0.83406177  0.50181430  0.83313708  1
  Ni  Ni51  1  0.83322365  0.83345393  0.49968083  1
  Ni  Ni52  1  0.66703396  0.66679863  0.66716114  1
  Ni  Ni53  1  0.83298611  0.83122350  0.83421067  1
" 