107,Ni95Fe2Cr2_16,-239.048058685949, 178.017743753138,Ni95Fe2Cr2,"# generated using pymatgen
 data_Cr2FeNi51
_symmetry_space_group_name_H-M   'P 1'
_cell_length_a   7.46125724
_cell_length_b   7.46125724
_cell_length_c   10.55181118
_cell_angle_alpha   90.00000000
_cell_angle_beta   90.00000000
_cell_angle_gamma   90.00000000
_symmetry_Int_Tables_number   1
_chemical_formula_structural   Cr2FeNi51
_chemical_formula_sum   'Cr2 Fe1 Ni51'
_cell_volume   587.42312195
_cell_formula_units_Z   1
loop_
 _symmetry_equiv_pos_site_id
 _symmetry_equiv_pos_as_xyz
  1  'x, y, z'
loop_
 _atom_site_type_symbol
 _atom_site_label
 _atom_site_symmetry_multiplicity
 _atom_site_fract_x
 _atom_site_fract_y
 _atom_site_fract_z
 _atom_site_occupancy
  Ni  Ni0  1  0.00050206  0.99998806  1.00031926  1
  Ni  Ni1  1  0.16584961  0.16811042  0.16611384  1
  Ni  Ni2  1  0.99888550  0.99998876  0.33400078  1
  Ni  Ni3  1  0.00049969  0.33411694  0.99986348  1
  Ni  Ni4  1  0.16724638  0.50051907  0.16723121  1
  Ni  Ni5  1  0.00048124  0.33413894  0.33422819  1
  Ni  Ni6  1  1.00002720  0.66705178  0.00042523  1
  Ni  Ni7  1  0.16627747  0.83253716  0.16613128  1
  Ni  Ni8  1  0.99998920  0.66702313  0.33365742  1
  Ni  Ni9  1  0.33372136  0.00049151  1.00001137  1
  Ni  Ni10  1  0.50159311  0.16811042  0.16611384  1
  Cr  Cr11  1  0.33372136  0.00077337  0.33357534  1
  Ni  Ni12  1  0.33372136  0.33365956  0.00084651  1
  Ni  Ni13  1  0.50019635  0.50051907  0.16723121  1
  Ni  Ni14  1  0.33372136  0.33529922  0.33345497  1
  Ni  Ni15  1  0.33372136  0.66705214  0.99972938  1
  Ni  Ni16  1  0.50116525  0.83253716  0.16613128  1
  Ni  Ni17  1  0.33372136  0.66546780  0.33459048  1
  Ni  Ni18  1  0.66694066  0.99998806  1.00031926  1
  Ni  Ni19  1  0.83372136  0.16712363  0.16723180  1
  Ni  Ni20  1  0.66855723  0.99998876  0.33400078  1
  Ni  Ni21  1  0.66694303  0.33411694  0.99986348  1
  Ni  Ni22  1  0.83372136  0.50012400  0.16699453  1
  Ni  Ni23  1  0.66696149  0.33413894  0.33422819  1
  Ni  Ni24  1  0.66741553  0.66705178  0.00042523  1
  Ni  Ni25  1  0.83372136  0.83391513  0.16722803  1
  Ni  Ni26  1  0.66745353  0.66702313  0.33365742  1
  Ni  Ni27  1  0.16499018  0.16711573  0.50031113  1
  Ni  Ni28  1  0.00074648  0.99970241  0.66684905  1
  Ni  Ni29  1  0.16600079  0.16613692  0.83468785  1
  Ni  Ni30  1  0.16599597  0.50133297  0.49925938  1
  Ni  Ni31  1  0.99920465  0.33443546  0.66707197  1
  Ni  Ni32  1  0.16601004  0.50128758  0.83473405  1
  Ni  Ni33  1  0.16611300  0.83274219  0.50145878  1
  Ni  Ni34  1  0.99926727  0.66709630  0.66707070  1
  Ni  Ni35  1  0.16703515  0.83380550  0.83357609  1
  Ni  Ni36  1  0.50245255  0.16711573  0.50031113  1
  Ni  Ni37  1  0.33372136  0.99943915  0.66728341  1
  Ni  Ni38  1  0.50144194  0.16613692  0.83468785  1
  Ni  Ni39  1  0.50144676  0.50133297  0.49925938  1
  Cr  Cr40  1  0.33372136  0.33279741  0.66684439  1
  Ni  Ni41  1  0.50143268  0.50128758  0.83473405  1
  Ni  Ni42  1  0.50132973  0.83274219  0.50145878  1
  Fe  Fe43  1  0.33372136  0.66820299  0.66714176  1
  Ni  Ni44  1  0.50040757  0.83380550  0.83357609  1
  Ni  Ni45  1  0.83372136  0.16705289  0.50063459  1
  Ni  Ni46  1  0.66669625  0.99970241  0.66684905  1
  Ni  Ni47  1  0.83372136  0.16697923  0.83330144  1
  Ni  Ni48  1  0.83372136  0.50030462  0.50055622  1
  Ni  Ni49  1  0.66823807  0.33443546  0.66707197  1
  Ni  Ni50  1  0.83372136  0.50031021  0.83361150  1
  Ni  Ni51  1  0.83372136  0.83381454  0.50008087  1
  Ni  Ni52  1  0.66817545  0.66709630  0.66707070  1
  Ni  Ni53  1  0.83372136  0.83388746  0.83385763  1
" 