8018,Ni96Fe2Cr0_11,-239.842908793051, 180.359577981599,Ni96Fe2Cr0,"# generated using pymatgen
 data_CrFeNi52
_symmetry_space_group_name_H-M   'P 1'
_cell_length_a   7.46224677
_cell_length_b   7.46224677
_cell_length_c   10.55321059
_cell_angle_alpha   90.00000000
_cell_angle_beta   90.00000000
_cell_angle_gamma   90.00000000
_symmetry_Int_Tables_number   1
_chemical_formula_structural   CrFeNi52
_chemical_formula_sum   'Cr1 Fe1 Ni52'
_cell_volume   587.65687005
_cell_formula_units_Z   1
loop_
 _symmetry_equiv_pos_site_id
 _symmetry_equiv_pos_as_xyz
  1  'x, y, z'
loop_
 _atom_site_type_symbol
 _atom_site_label
 _atom_site_symmetry_multiplicity
 _atom_site_fract_x
 _atom_site_fract_y
 _atom_site_fract_z
 _atom_site_occupancy
  Cr  Cr0  1  0.00101057  0.00032168  0.00032168  1
  Ni  Ni1  1  0.16781873  0.16784761  0.16784049  1
  Ni  Ni2  1  0.00034676  0.00032168  0.33381905  1
  Ni  Ni3  1  0.99986049  0.33492745  0.00032168  1
  Ni  Ni4  1  0.16676582  0.50032168  0.16672283  1
  Ni  Ni5  1  1.00009937  0.33321648  0.33318751  1
  Ni  Ni6  1  0.99986049  0.66571590  0.00032168  1
  Ni  Ni7  1  0.16781873  0.83279574  0.16784049  1
  Ni  Ni8  1  1.00009937  0.66742687  0.33318751  1
  Ni  Ni9  1  0.33473683  0.00032168  0.00032168  1
  Ni  Ni10  1  0.50022018  0.16686517  0.16684720  1
  Ni  Ni11  1  0.33340969  0.00032168  0.33344037  1
  Ni  Ni12  1  0.33424918  0.33333804  0.00032168  1
  Ni  Ni13  1  0.50030244  0.50032168  0.16702189  1
  Ni  Ni14  1  0.33384361  0.33339819  0.33337628  1
  Ni  Ni15  1  0.33424918  0.66730531  0.00032168  1
  Ni  Ni16  1  0.50022018  0.83377818  0.16684720  1
  Ni  Ni17  1  0.33384361  0.66724516  0.33337628  1
  Fe  Fe18  1  0.66527499  0.00032168  0.00032168  1
  Ni  Ni19  1  0.83291716  0.16793541  0.16791340  1
  Ni  Ni20  1  0.66720405  0.00032168  0.33294477  1
  Ni  Ni21  1  0.66684843  0.33445741  0.00032168  1
  Ni  Ni22  1  0.83389547  0.50032168  0.16678013  1
  Ni  Ni23  1  0.66702302  0.33364766  0.33362723  1
  Ni  Ni24  1  0.66684843  0.66618594  0.00032168  1
  Ni  Ni25  1  0.83291716  0.83270794  0.16791340  1
  Ni  Ni26  1  0.66702302  0.66699569  0.33362723  1
  Ni  Ni27  1  0.16698949  0.16700260  0.50032168  1
  Ni  Ni28  1  0.00034676  0.00032168  0.66682430  1
  Ni  Ni29  1  0.16781873  0.16784761  0.83280286  1
  Ni  Ni30  1  0.16697092  0.50032168  0.50032168  1
  Ni  Ni31  1  1.00009937  0.33321648  0.66745584  1
  Ni  Ni32  1  0.16676582  0.50032168  0.83392052  1
  Ni  Ni33  1  0.16698949  0.83364075  0.50032168  1
  Ni  Ni34  1  1.00009937  0.66742687  0.66745584  1
  Ni  Ni35  1  0.16781873  0.83279574  0.83280286  1
  Ni  Ni36  1  0.50033798  0.16695463  0.50032168  1
  Ni  Ni37  1  0.33340969  0.00032168  0.66720298  1
  Ni  Ni38  1  0.50022018  0.16686517  0.83379615  1
  Ni  Ni39  1  0.50030859  0.50032168  0.50032168  1
  Ni  Ni40  1  0.33384361  0.33339819  0.66726707  1
  Ni  Ni41  1  0.50030244  0.50032168  0.83362146  1
  Ni  Ni42  1  0.50033798  0.83368872  0.50032168  1
  Ni  Ni43  1  0.33384361  0.66724516  0.66726707  1
  Ni  Ni44  1  0.50022018  0.83377818  0.83379615  1
  Ni  Ni45  1  0.83363759  0.16697326  0.50032168  1
  Ni  Ni46  1  0.66720405  0.00032168  0.66769858  1
  Ni  Ni47  1  0.83291716  0.16793541  0.83272995  1
  Ni  Ni48  1  0.83368549  0.50032168  0.50032168  1
  Ni  Ni49  1  0.66702302  0.33364766  0.66701612  1
  Ni  Ni50  1  0.83389547  0.50032168  0.83386322  1
  Ni  Ni51  1  0.83363759  0.83367009  0.50032168  1
  Ni  Ni52  1  0.66702302  0.66699569  0.66701612  1
  Ni  Ni53  1  0.83291716  0.83270794  0.83272995  1
" 