62,Ni96Fe2Cr1_12,-239.841623209367, 180.327182198699,Ni96Fe2Cr1,"# generated using pymatgen
 data_CrFeNi52
_symmetry_space_group_name_H-M   'P 1'
_cell_length_a   7.46083309
_cell_length_b   7.46083309
_cell_length_c   10.55121135
_cell_angle_alpha   90.00000000
_cell_angle_beta   90.00000000
_cell_angle_gamma   90.00000000
_symmetry_Int_Tables_number   1
_chemical_formula_structural   CrFeNi52
_chemical_formula_sum   'Cr1 Fe1 Ni52'
_cell_volume   587.32294967
_cell_formula_units_Z   1
loop_
 _symmetry_equiv_pos_site_id
 _symmetry_equiv_pos_as_xyz
  1  'x, y, z'
loop_
 _atom_site_type_symbol
 _atom_site_label
 _atom_site_symmetry_multiplicity
 _atom_site_fract_x
 _atom_site_fract_y
 _atom_site_fract_z
 _atom_site_occupancy
  Ni  Ni0  1  1.00029310  1.00038215  0.00048562  1
  Ni  Ni1  1  0.16691718  0.16731590  0.16709770  1
  Ni  Ni2  1  0.00054462  1.00020901  0.33392414  1
  Ni  Ni3  1  1.00040728  0.33374981  0.00048833  1
  Ni  Ni4  1  0.16691718  0.50018372  0.16709770  1
  Ni  Ni5  1  1.00029121  0.33374981  0.33368558  1
  Ni  Ni6  1  1.00029310  0.66711747  0.00048562  1
  Ni  Ni7  1  0.16708228  0.83374981  0.16661289  1
  Ni  Ni8  1  0.00054462  0.66729061  0.33392414  1
  Ni  Ni9  1  0.33383012  0.00052956  0.00045855  1
  Ni  Ni10  1  0.50016837  0.16682803  0.16699074  1
  Ni  Ni11  1  0.33254256  0.00134748  0.33282208  1
  Ni  Ni12  1  0.33391800  0.33374981  0.00048994  1
  Ni  Ni13  1  0.50016837  0.50067159  0.16699074  1
  Ni  Ni14  1  0.33394450  0.33374981  0.33392179  1
  Ni  Ni15  1  0.33383012  0.66697006  0.00045855  1
  Ni  Ni16  1  0.50048814  0.83374981  0.16690374  1
  Ni  Ni17  1  0.33254256  0.66615214  0.33282208  1
  Ni  Ni18  1  0.66710604  0.00044293  0.00048906  1
  Ni  Ni19  1  0.83416480  0.16700093  0.16675355  1
  Ni  Ni20  1  0.66817558  0.00163602  0.33279699  1
  Ni  Ni21  1  0.66692511  0.33374981  1.00015691  1
  Ni  Ni22  1  0.83416480  0.50049869  0.16675355  1
  Ni  Ni23  1  0.66701302  0.33374981  0.33392476  1
  Ni  Ni24  1  0.66710604  0.66705668  0.00048906  1
  Ni  Ni25  1  0.83368020  0.83374981  0.16733163  1
  Ni  Ni26  1  0.66817558  0.66586360  0.33279699  1
  Ni  Ni27  1  0.16689986  0.16733829  0.50036969  1
  Ni  Ni28  1  1.00033234  0.00042287  0.66689619  1
  Ni  Ni29  1  0.16692366  0.16804802  0.83377051  1
  Ni  Ni30  1  0.16689986  0.50016133  0.50036969  1
  Ni  Ni31  1  1.00040409  0.33374981  0.66707216  1
  Ni  Ni32  1  0.16692366  0.49945160  0.83377051  1
  Ni  Ni33  1  0.16553568  0.83374981  0.50108443  1
  Ni  Ni34  1  1.00033234  0.66707675  0.66689619  1
  Fe  Fe35  1  0.16689373  0.83374981  0.83384830  1
  Ni  Ni36  1  0.50016655  0.16843674  0.50072021  1
  Ni  Ni37  1  0.33276202  0.00146611  0.66798420  1
  Ni  Ni38  1  0.49987435  0.16653931  0.83354438  1
  Ni  Ni39  1  0.50016655  0.49906288  0.50072021  1
  Ni  Ni40  1  0.33382469  0.33374981  0.66684158  1
  Ni  Ni41  1  0.49987435  0.50096030  0.83354438  1
  Cr  Cr42  1  0.50082063  0.83374981  0.50006315  1
  Ni  Ni43  1  0.33276202  0.66603351  0.66798420  1
  Ni  Ni44  1  0.50116684  0.83374981  0.83398437  1
  Ni  Ni45  1  0.83417910  0.16701254  0.50071979  1
  Ni  Ni46  1  0.66809978  0.00147917  0.66790887  1
  Ni  Ni47  1  0.83446171  0.16669810  0.83377509  1
  Ni  Ni48  1  0.83417910  0.50048708  0.50071979  1
  Ni  Ni49  1  0.66701737  0.33374981  0.66717173  1
  Ni  Ni50  1  0.83446171  0.50080152  0.83377509  1
  Ni  Ni51  1  0.83532103  0.83374981  0.50035450  1
  Ni  Ni52  1  0.66809978  0.66602045  0.66790887  1
  Ni  Ni53  1  0.83287241  0.83374981  0.83353917  1
" 