7563,Ni96Fe3Cr0_14,-239.0402382715, 177.975613789057,Ni96Fe3Cr0,"# generated using pymatgen
 data_Cr2FeNi51
_symmetry_space_group_name_H-M   'P 1'
_cell_length_a   7.46194628
_cell_length_b   7.46194628
_cell_length_c   10.55278563
_cell_angle_alpha   90.00000000
_cell_angle_beta   90.00000000
_cell_angle_gamma   90.00000000
_symmetry_Int_Tables_number   1
_chemical_formula_structural   Cr2FeNi51
_chemical_formula_sum   'Cr2 Fe1 Ni51'
_cell_volume   587.58588181
_cell_formula_units_Z   1
loop_
 _symmetry_equiv_pos_site_id
 _symmetry_equiv_pos_as_xyz
  1  'x, y, z'
loop_
 _atom_site_type_symbol
 _atom_site_label
 _atom_site_symmetry_multiplicity
 _atom_site_fract_x
 _atom_site_fract_y
 _atom_site_fract_z
 _atom_site_occupancy
  Ni  Ni0  1  0.00043953  0.00043732  1.00024955  1
  Ni  Ni1  1  0.16659118  0.16658925  0.16700748  1
  Ni  Ni2  1  0.00205881  0.00043865  0.33376965  1
  Ni  Ni3  1  0.99954972  0.33286504  0.00113052  1
  Ni  Ni4  1  0.16659194  0.50075837  0.16713386  1
  Ni  Ni5  1  0.00048433  0.33379930  0.33369557  1
  Ni  Ni6  1  0.99962680  0.66772351  0.00105919  1
  Ni  Ni7  1  0.16761089  0.83367713  0.16700736  1
  Ni  Ni8  1  0.00056324  0.66678707  0.33376869  1
  Ni  Ni9  1  0.33367415  0.00035916  1.00032211  1
  Ni  Ni10  1  0.49994946  0.16740085  0.16619803  1
  Ni  Ni11  1  0.33205715  0.00035857  0.33369530  1
  Ni  Ni12  1  0.33448550  0.33286482  0.00116266  1
  Ni  Ni13  1  0.50076107  0.50075914  0.16700748  1
  Ni  Ni14  1  0.33354969  0.33380062  0.33366471  1
  Ni  Ni15  1  0.33448528  0.66780059  0.00113052  1
  Ni  Ni16  1  0.49892644  0.83286507  0.16619839  1
  Ni  Ni17  1  0.33355101  0.66686598  0.33369557  1
  Ni  Ni18  1  0.66691260  0.00043771  1.00012274  1
  Ni  Ni19  1  0.83448525  0.16842387  0.16619839  1
  Cr  Cr20  1  0.66684722  0.00050310  0.33383420  1
  Ni  Ni21  1  0.66699116  0.33367616  1.00032211  1
  Ni  Ni22  1  0.83367319  0.49973942  0.16700736  1
  Ni  Ni23  1  0.66699174  0.33529317  0.33369530  1
  Ni  Ni24  1  0.66691299  0.66691078  1.00024955  1
  Fe  Fe25  1  0.83448693  0.83286338  0.16619700  1
  Ni  Ni26  1  0.66691167  0.66529151  0.33376965  1
  Ni  Ni27  1  0.16680492  0.16680256  0.50013665  1
  Ni  Ni28  1  1.00033837  1.00033629  0.66700749  1
  Ni  Ni29  1  0.16680466  0.16518339  0.83388133  1
  Ni  Ni30  1  0.16680484  0.50054547  0.50001023  1
  Ni  Ni31  1  0.99953450  0.33286454  0.66619788  1
  Cr  Cr32  1  0.16686146  0.50048885  0.83382442  1
  Ni  Ni33  1  0.16702987  0.83367724  0.50036104  1
  Ni  Ni34  1  0.99952603  0.66782428  0.66619815  1
  Ni  Ni35  1  0.16703070  0.83529524  0.83365595  1
  Ni  Ni36  1  0.49973414  0.16761617  0.50094716  1
  Ni  Ni37  1  0.33367322  0.00034501  0.66700733  1
  Ni  Ni38  1  0.50067108  0.16667923  0.83388115  1
  Ni  Ni39  1  0.50054775  0.50054539  0.50013665  1
  Ni  Ni40  1  0.33448600  0.33286431  0.66619761  1
  Ni  Ni41  1  0.50216692  0.50054566  0.83388133  1
  Ni  Ni42  1  0.49951123  0.83286442  0.50116942  1
  Ni  Ni43  1  0.33448577  0.66781581  0.66619788  1
  Ni  Ni44  1  0.50044555  0.83380057  0.83365641  1
  Ni  Ni45  1  0.83448589  0.16783908  0.50116942  1
  Ni  Ni46  1  0.66701396  1.00033635  0.66713394  1
  Ni  Ni47  1  0.83354975  0.16690476  0.83365641  1
  Ni  Ni48  1  0.83367307  0.50032045  0.50036104  1
  Ni  Ni49  1  0.66700530  0.33367709  0.66700733  1
  Ni  Ni50  1  0.83205508  0.50031962  0.83365595  1
  Ni  Ni51  1  0.83448561  0.83286470  0.50072917  1
  Ni  Ni52  1  0.66701402  0.66701194  0.66700749  1
  Ni  Ni53  1  0.83354980  0.83380051  0.83409666  1
" 