8420,Ni96Fe2Cr0_18,-239.840677091791, 180.234391477256,Ni96Fe2Cr0,"# generated using pymatgen
 data_CrFeNi52
_symmetry_space_group_name_H-M   'P 1'
_cell_length_a   7.46060115
_cell_length_b   7.46060115
_cell_length_c   10.55088333
_cell_angle_alpha   90.00000000
_cell_angle_beta   90.00000000
_cell_angle_gamma   90.00000000
_symmetry_Int_Tables_number   1
_chemical_formula_structural   CrFeNi52
_chemical_formula_sum   'Cr1 Fe1 Ni52'
_cell_volume   587.26817467
_cell_formula_units_Z   1
loop_
 _symmetry_equiv_pos_site_id
 _symmetry_equiv_pos_as_xyz
  1  'x, y, z'
loop_
 _atom_site_type_symbol
 _atom_site_label
 _atom_site_symmetry_multiplicity
 _atom_site_fract_x
 _atom_site_fract_y
 _atom_site_fract_z
 _atom_site_occupancy
  Ni  Ni0  1  0.99989558  0.00096848  0.00065943  1
  Ni  Ni1  1  0.16711933  0.16710769  0.16717437  1
  Ni  Ni2  1  1.00018786  0.00067621  0.33323042  1
  Ni  Ni3  1  0.00120853  0.33377797  1.00023092  1
  Ni  Ni4  1  0.16693750  0.50044194  0.16717457  1
  Ni  Ni5  1  0.00049772  0.33377972  0.33400552  1
  Ni  Ni6  1  0.99989227  0.66654206  1.00023600  1
  Ni  Ni7  1  0.16711789  0.83374617  0.16682377  1
  Ni  Ni8  1  1.00018945  0.66683516  0.33365750  1
  Ni  Ni9  1  0.33432201  0.00097180  1.00023600  1
  Ni  Ni10  1  0.50034382  0.16684803  0.16712917  1
  Ni  Ni11  1  0.33402890  0.00067461  0.33365750  1
  Ni  Ni12  1  0.33312738  0.33394608  0.00046989  1
  Ni  Ni13  1  0.50033484  0.50052923  0.16713804  1
  Ni  Ni14  1  0.33387336  0.33394226  0.33377455  1
  Ni  Ni15  1  0.33447925  0.66638481  0.00046393  1
  Ni  Ni16  1  0.50042213  0.83392657  0.16717457  1
  Ni  Ni17  1  0.33418192  0.66668215  0.33343348  1
  Ni  Ni18  1  0.66708610  0.99965553  1.00023092  1
  Ni  Ni19  1  0.83382553  0.16703854  0.16711964  1
  Ni  Ni20  1  0.66708435  1.00036634  0.33400552  1
  Fe  Fe21  1  0.66686693  0.33399714  0.00057592  1
  Ni  Ni22  1  0.83401604  0.50052025  0.16712917  1
  Ni  Ni23  1  0.66692447  0.33393959  0.33306410  1
  Ni  Ni24  1  0.66691798  0.66773668  0.00046989  1
  Ni  Ni25  1  0.83375638  0.83374474  0.16717437  1
  Ni  Ni26  1  0.66692181  0.66699071  0.33377455  1
  Ni  Ni27  1  0.16815234  0.16801804  0.49952169  1
  Cr  Cr28  1  1.00024470  0.00061937  0.66733846  1
  Ni  Ni29  1  0.16810010  0.16810847  0.83456579  1
  Ni  Ni30  1  0.16704720  0.50056232  0.50059317  1
  Ni  Ni31  1  0.00050514  0.33529469  0.66705051  1
  Ni  Ni32  1  0.16705705  0.50043887  0.83352915  1
  Ni  Ni33  1  0.16816129  0.83270278  0.49951147  1
  Ni  Ni34  1  1.00018359  0.66528425  0.66740442  1
  Ni  Ni35  1  0.16814300  0.83272106  0.83494161  1
  Ni  Ni36  1  0.50057843  0.16719120  0.50059392  1
  Ni  Ni37  1  0.33557982  0.00068048  0.66740442  1
  Ni  Ni38  1  0.50035445  0.16696947  0.83358443  1
  Ni  Ni39  1  0.50057674  0.50028733  0.50036600  1
  Ni  Ni40  1  0.33387450  0.33394528  0.66705104  1
  Ni  Ni41  1  0.50035382  0.50051025  0.83381045  1
  Ni  Ni42  1  0.50030175  0.83381687  0.50059317  1
  Ni  Ni43  1  0.33419593  0.66666813  0.66740099  1
  Ni  Ni44  1  0.50042519  0.83380702  0.83352915  1
  Ni  Ni45  1  0.83257798  0.16828609  0.49953018  1
  Ni  Ni46  1  0.66556937  1.00035893  0.66705051  1
  Ni  Ni47  1  0.83278192  0.16808215  0.83466357  1
  Ni  Ni48  1  0.83367286  0.50028564  0.50059392  1
  Ni  Ni49  1  0.66691832  0.33394574  0.66776511  1
  Ni  Ni50  1  0.83389459  0.50050962  0.83358443  1
  Ni  Ni51  1  0.83284602  0.83271173  0.49952169  1
  Ni  Ni52  1  0.66691878  0.66698956  0.66705104  1
  Ni  Ni53  1  0.83275559  0.83276397  0.83456579  1
" 