5819,Ni96Fe3Cr0_7,-239.052321302686, 177.402737903961,Ni96Fe3Cr0,"# generated using pymatgen
 data_Cr2FeNi51
_symmetry_space_group_name_H-M   'P 1'
_cell_length_a   7.46154226
_cell_length_b   7.46154226
_cell_length_c   10.55221427
_cell_angle_alpha   90.00000000
_cell_angle_beta   90.00000000
_cell_angle_gamma   90.00000000
_symmetry_Int_Tables_number   1
_chemical_formula_structural   Cr2FeNi51
_chemical_formula_sum   'Cr2 Fe1 Ni51'
_cell_volume   587.49044534
_cell_formula_units_Z   1
loop_
 _symmetry_equiv_pos_site_id
 _symmetry_equiv_pos_as_xyz
  1  'x, y, z'
loop_
 _atom_site_type_symbol
 _atom_site_label
 _atom_site_symmetry_multiplicity
 _atom_site_fract_x
 _atom_site_fract_y
 _atom_site_fract_z
 _atom_site_occupancy
  Ni  Ni0  1  0.00129116  0.99760492  0.00129438  1
  Ni  Ni1  1  0.16787410  0.16574082  0.16805905  1
  Ni  Ni2  1  0.00048707  0.00044045  0.33345818  1
  Cr  Cr3  1  0.00173749  0.33495004  0.00145743  1
  Ni  Ni4  1  0.16799053  0.50181873  0.16824499  1
  Ni  Ni5  1  0.00039561  0.33372623  0.33385102  1
  Ni  Ni6  1  1.00016905  0.66878841  1.00020560  1
  Ni  Ni7  1  0.16722700  0.83350531  0.16686320  1
  Ni  Ni8  1  1.00033049  0.66691137  0.33341754  1
  Ni  Ni9  1  0.33390068  1.00036846  1.00021096  1
  Ni  Ni10  1  0.50058479  0.16684368  0.16697777  1
  Ni  Ni11  1  0.33389159  1.00035865  0.33366572  1
  Ni  Ni12  1  0.33531909  0.33364917  1.00020422  1
  Ni  Ni13  1  0.50041813  0.50073780  0.16720372  1
  Ni  Ni14  1  0.33370938  0.33353564  0.33376468  1
  Ni  Ni15  1  0.33387499  0.66707615  0.00043733  1
  Ni  Ni16  1  0.50011698  0.83351876  0.16709600  1
  Ni  Ni17  1  0.33389641  0.66722003  0.33367238  1
  Ni  Ni18  1  0.66592936  0.99896951  0.00128253  1
  Ni  Ni19  1  0.83265473  0.16608470  0.16810321  1
  Ni  Ni20  1  0.66674230  1.00026630  0.33370009  1
  Ni  Ni21  1  0.66425996  0.33479670  0.00131970  1
  Ni  Ni22  1  0.83265439  0.50136629  0.16769386  1
  Ni  Ni23  1  0.66699796  0.33372785  0.33343014  1
  Ni  Ni24  1  0.66704928  0.66736993  1.00020840  1
  Ni  Ni25  1  0.83375070  0.83366307  0.16736353  1
  Ni  Ni26  1  0.66689318  0.66709874  0.33367469  1
  Ni  Ni27  1  0.16653480  0.16648344  0.50056517  1
  Ni  Ni28  1  0.00140546  0.99935121  0.66632883  1
  Ni  Ni29  1  0.16939060  0.16572873  0.83248241  1
  Ni  Ni30  1  0.16669073  0.50110484  0.50033497  1
  Ni  Ni31  1  0.00142376  0.33470919  0.66598905  1
  Ni  Ni32  1  0.16802498  0.50185541  0.83249592  1
  Ni  Ni33  1  0.16784328  0.83352213  0.50033669  1
  Ni  Ni34  1  0.00039345  0.66698025  0.66740878  1
  Ni  Ni35  1  0.16724452  0.83350121  0.83390540  1
  Ni  Ni36  1  0.50089294  0.16666858  0.50057708  1
  Ni  Ni37  1  0.33390153  1.00024951  0.66723992  1
  Ni  Ni38  1  0.49899888  0.16684027  0.83356040  1
  Ni  Ni39  1  0.50072395  0.50092541  0.50033170  1
  Ni  Ni40  1  0.33373690  0.33365308  0.66711763  1
  Ni  Ni41  1  0.50042042  0.50074680  0.83355836  1
  Ni  Ni42  1  0.49938856  0.83351742  0.50033185  1
  Ni  Ni43  1  0.33388795  0.66720820  0.66701143  1
  Ni  Ni44  1  0.50011967  0.83352689  0.83368059  1
  Ni  Ni45  1  0.83368510  0.16775611  0.50013837  1
  Ni  Ni46  1  0.66584855  0.99923241  0.66614022  1
  Cr  Cr47  1  0.83249699  0.16626301  0.83303437  1
  Ni  Ni48  1  0.83368345  0.49953161  0.50057062  1
  Ni  Ni49  1  0.66594346  0.33470894  0.66640530  1
  Ni  Ni50  1  0.83264579  0.50291361  0.83287623  1
  Fe  Fe51  1  0.83386058  0.83351056  0.50027317  1
  Ni  Ni52  1  0.66683966  0.66715043  0.66717778  1
  Ni  Ni53  1  0.83374902  0.83214447  0.83318882  1
" 