7834,Ni96Fe3Cr0_5,-239.070272025889, 178.340159029703,Ni96Fe3Cr0,"# generated using pymatgen
 data_Cr2FeNi51
_symmetry_space_group_name_H-M   'P 1'
_cell_length_a   7.46113553
_cell_length_b   7.46113553
_cell_length_c   10.55163905
_cell_angle_alpha   90.00000000
_cell_angle_beta   90.00000000
_cell_angle_gamma   90.00000000
_symmetry_Int_Tables_number   1
_chemical_formula_structural   Cr2FeNi51
_chemical_formula_sum   'Cr2 Fe1 Ni51'
_cell_volume   587.39437594
_cell_formula_units_Z   1
loop_
 _symmetry_equiv_pos_site_id
 _symmetry_equiv_pos_as_xyz
  1  'x, y, z'
loop_
 _atom_site_type_symbol
 _atom_site_label
 _atom_site_symmetry_multiplicity
 _atom_site_fract_x
 _atom_site_fract_y
 _atom_site_fract_z
 _atom_site_occupancy
  Ni  Ni0  1  0.99910801  0.00122049  0.00138059  1
  Ni  Ni1  1  0.16704683  0.16702197  0.16621561  1
  Ni  Ni2  1  1.00036359  1.00039353  0.33371127  1
  Ni  Ni3  1  0.00044208  0.33381406  1.00001983  1
  Ni  Ni4  1  0.16704867  0.50052751  0.16691126  1
  Ni  Ni5  1  0.00069236  0.33360346  0.33394169  1
  Ni  Ni6  1  0.99919131  0.66621808  0.00140464  1
  Ni  Ni7  1  0.16720600  0.83366157  0.16733348  1
  Ni  Ni8  1  1.00012362  0.66719215  0.33371201  1
  Ni  Ni9  1  0.33487215  0.00137293  0.00115903  1
  Ni  Ni10  1  0.50062496  0.16718905  0.16712709  1
  Ni  Ni11  1  0.33361828  0.00056317  0.33394122  1
  Ni  Ni12  1  0.33371753  0.33381437  0.00045739  1
  Ni  Ni13  1  0.50030282  0.50001200  0.16678082  1
  Ni  Ni14  1  0.33346110  0.33360394  0.33350441  1
  Ni  Ni15  1  0.33478090  0.66606611  0.00117182  1
  Ni  Ni16  1  0.49997103  0.83398061  0.16654662  1
  Ni  Ni17  1  0.33385773  0.66701941  0.33394513  1
  Ni  Ni18  1  0.66717159  1.00015062  1.00030844  1
  Ni  Ni19  1  0.83350261  0.16734606  0.16713960  1
  Ni  Ni20  1  0.66720594  0.99999695  0.33371305  1
  Ni  Ni21  1  0.66701282  0.33375485  1.00032202  1
  Ni  Ni22  1  0.83383963  0.49985263  0.16677716  1
  Ni  Ni23  1  0.66703490  0.33384329  0.33394364  1
  Ni  Ni24  1  0.66720423  0.66729238  0.99999436  1
  Ni  Ni25  1  0.83401100  0.83398311  0.16654613  1
  Ni  Ni26  1  0.66720733  0.66735018  0.33371169  1
  Ni  Ni27  1  0.16602029  0.16599199  0.50036793  1
  Ni  Ni28  1  0.99905474  0.00114595  0.66608186  1
  Fe  Fe29  1  0.16606441  0.16752155  0.83463532  1
  Ni  Ni30  1  0.16600988  0.50152074  0.49966584  1
  Ni  Ni31  1  0.99878145  0.33382697  0.66720763  1
  Ni  Ni32  1  0.16602633  0.50048609  0.83463919  1
  Ni  Ni33  1  0.16714554  0.83367812  0.50033570  1
  Ni  Ni34  1  0.99917431  0.66626154  0.66609227  1
  Cr  Cr35  1  0.16715265  0.83284959  0.83354950  1
  Ni  Ni36  1  0.50162239  0.16613957  0.49944763  1
  Ni  Ni37  1  0.33491364  0.99966131  0.66605341  1
  Ni  Ni38  1  0.50247687  0.16621467  0.83464001  1
  Ni  Ni39  1  0.50136105  0.50107447  0.49973512  1
  Cr  Cr40  1  0.33382659  0.33388626  0.66709867  1
  Ni  Ni41  1  0.50106072  0.50070357  0.83464285  1
  Ni  Ni42  1  0.50002335  0.83397775  0.50109898  1
  Ni  Ni43  1  0.33476268  0.66769705  0.66609796  1
  Ni  Ni44  1  0.50137946  0.83430597  0.83355444  1
  Ni  Ni45  1  0.83352263  0.16729257  0.50052003  1
  Ni  Ni46  1  0.66721022  1.00012835  0.66718353  1
  Ni  Ni47  1  0.83273674  0.16733640  0.83354929  1
  Ni  Ni48  1  0.83383941  0.49990807  0.50085894  1
  Ni  Ni49  1  0.66863765  0.33373771  0.66693846  1
  Ni  Ni50  1  0.83407926  0.49960918  0.83355076  1
  Ni  Ni51  1  0.83401089  0.83397855  0.50085484  1
  Ni  Ni52  1  0.66724472  0.66732583  0.66748347  1
  Ni  Ni53  1  0.83263745  0.83429006  0.83379074  1
" 