128,Ni96Fe2Cr0_14,-239.851181364697, 180.286105671531,Ni96Fe2Cr0,"# generated using pymatgen
 data_CrFeNi52
_symmetry_space_group_name_H-M   'P 1'
_cell_length_a   7.46066161
_cell_length_b   7.46066161
_cell_length_c   10.55096883
_cell_angle_alpha   90.00000000
_cell_angle_beta   90.00000000
_cell_angle_gamma   90.00000000
_symmetry_Int_Tables_number   1
_chemical_formula_structural   CrFeNi52
_chemical_formula_sum   'Cr1 Fe1 Ni52'
_cell_volume   587.28245228
_cell_formula_units_Z   1
loop_
 _symmetry_equiv_pos_site_id
 _symmetry_equiv_pos_as_xyz
  1  'x, y, z'
loop_
 _atom_site_type_symbol
 _atom_site_label
 _atom_site_symmetry_multiplicity
 _atom_site_fract_x
 _atom_site_fract_y
 _atom_site_fract_z
 _atom_site_occupancy
  Ni  Ni0  1  0.99962731  0.99962731  0.99921464  1
  Cr  Cr1  1  0.16723782  0.16723782  0.16709464  1
  Ni  Ni2  1  0.99962731  0.99962731  0.33497465  1
  Ni  Ni3  1  0.99929957  0.33481168  0.99956718  1
  Ni  Ni4  1  0.16722916  0.50188964  0.16709464  1
  Ni  Ni5  1  0.99929957  0.33481168  0.33462211  1
  Ni  Ni6  1  0.00074274  0.66684084  1.00029621  1
  Ni  Ni7  1  0.16697029  0.83216597  0.16709464  1
  Ni  Ni8  1  0.00074274  0.66684084  0.33389308  1
  Ni  Ni9  1  0.33481168  0.99929957  0.99956718  1
  Ni  Ni10  1  0.50188964  0.16722916  0.16709464  1
  Ni  Ni11  1  0.33481168  0.99929957  0.33462211  1
  Ni  Ni12  1  0.33481273  0.33481273  0.99886372  1
  Ni  Ni13  1  0.50047162  0.50047162  0.16709464  1
  Ni  Ni14  1  0.33481273  0.33481273  0.33532557  1
  Ni  Ni15  1  0.33369412  0.66716017  0.00063996  1
  Ni  Ni16  1  0.50073270  0.83358165  0.16709464  1
  Ni  Ni17  1  0.33369412  0.66716017  0.33354933  1
  Ni  Ni18  1  0.66684084  0.00074274  1.00029621  1
  Ni  Ni19  1  0.83216597  0.16697029  0.16709464  1
  Ni  Ni20  1  0.66684084  0.00074274  0.33389308  1
  Ni  Ni21  1  0.66716017  0.33369412  0.00063996  1
  Ni  Ni22  1  0.83358165  0.50073270  0.16709464  1
  Ni  Ni23  1  0.66716017  0.33369412  0.33354933  1
  Ni  Ni24  1  0.66684559  0.66684559  1.00006214  1
  Ni  Ni25  1  0.83358099  0.83358099  0.16709464  1
  Ni  Ni26  1  0.66684559  0.66684559  0.33412715  1
  Ni  Ni27  1  0.16701420  0.16701420  0.50062668  1
  Ni  Ni28  1  0.00095505  0.00095505  0.66709464  1
  Ni  Ni29  1  0.16701420  0.16701420  0.83356261  1
  Ni  Ni30  1  0.16700881  0.50050861  0.50018792  1
  Ni  Ni31  1  0.99960800  0.33377682  0.66709464  1
  Ni  Ni32  1  0.16700881  0.50050861  0.83400137  1
  Ni  Ni33  1  0.16708548  0.83375549  0.50014819  1
  Ni  Ni34  1  0.00112783  0.66655180  0.66709464  1
  Ni  Ni35  1  0.16708548  0.83375549  0.83404110  1
  Ni  Ni36  1  0.50050861  0.16700881  0.50018792  1
  Ni  Ni37  1  0.33377682  0.99960800  0.66709464  1
  Ni  Ni38  1  0.50050861  0.16700881  0.83400137  1
  Ni  Ni39  1  0.50067577  0.50067577  0.50042290  1
  Fe  Fe40  1  0.33381953  0.33381953  0.66709464  1
  Ni  Ni41  1  0.50067577  0.50067577  0.83376639  1
  Ni  Ni42  1  0.50060343  0.83359506  0.50037951  1
  Ni  Ni43  1  0.33360452  0.66789865  0.66709464  1
  Ni  Ni44  1  0.50060343  0.83359506  0.83380978  1
  Ni  Ni45  1  0.83375549  0.16708548  0.50014819  1
  Ni  Ni46  1  0.66655180  0.00112783  0.66709464  1
  Ni  Ni47  1  0.83375549  0.16708548  0.83404110  1
  Ni  Ni48  1  0.83359506  0.50060343  0.50037951  1
  Ni  Ni49  1  0.66789865  0.33360452  0.66709464  1
  Ni  Ni50  1  0.83359506  0.50060343  0.83380978  1
  Ni  Ni51  1  0.83359708  0.83359708  0.50071096  1
  Ni  Ni52  1  0.66655141  0.66655141  0.66709464  1
  Ni  Ni53  1  0.83359708  0.83359708  0.83347833  1
" 