2099,Ni96Fe2Cr1_16,-239.841623209367, 180.327182199612,Ni96Fe2Cr1,"# generated using pymatgen
 data_CrFeNi52
_symmetry_space_group_name_H-M   'P 1'
_cell_length_a   7.46083309
_cell_length_b   7.46083309
_cell_length_c   10.55121135
_cell_angle_alpha   90.00000000
_cell_angle_beta   90.00000000
_cell_angle_gamma   90.00000000
_symmetry_Int_Tables_number   1
_chemical_formula_structural   CrFeNi52
_chemical_formula_sum   'Cr1 Fe1 Ni52'
_cell_volume   587.32294967
_cell_formula_units_Z   1
loop_
 _symmetry_equiv_pos_site_id
 _symmetry_equiv_pos_as_xyz
  1  'x, y, z'
loop_
 _atom_site_type_symbol
 _atom_site_label
 _atom_site_symmetry_multiplicity
 _atom_site_fract_x
 _atom_site_fract_y
 _atom_site_fract_z
 _atom_site_occupancy
  Fe  Fe0  1  0.00041648  0.00060588  1.00031799  1
  Ni  Ni1  1  0.16708954  0.16716728  0.16727010  1
  Ni  Ni2  1  0.00041648  0.00196394  0.33308186  1
  Ni  Ni3  1  0.00041648  0.33462721  0.00062712  1
  Ni  Ni4  1  0.16814583  0.49939984  0.16625741  1
  Ni  Ni5  1  0.00041648  0.33217858  0.33381178  1
  Ni  Ni6  1  0.00041648  0.66633278  1.00018192  1
  Ni  Ni7  1  0.16813278  0.83473760  0.16618208  1
  Cr  Cr8  1  0.00041648  0.66667898  0.33410314  1
  Ni  Ni9  1  0.33471469  0.00057596  1.00039578  1
  Ni  Ni10  1  0.50041648  0.16709553  0.16709412  1
  Ni  Ni11  1  0.33400496  0.00059976  0.33379660  1
  Ni  Ni12  1  0.33336477  0.33303791  1.00039119  1
  Ni  Ni13  1  0.50041648  0.50048224  0.16699456  1
  Ni  Ni14  1  0.33367920  0.33332051  0.33344649  1
  Ni  Ni15  1  0.33320598  0.66762527  0.00062191  1
  Ni  Ni16  1  0.50041648  0.83367493  0.16732471  1
  Ni  Ni17  1  0.33510341  0.66733307  0.33344608  1
  Ni  Ni18  1  0.66611826  0.00057596  1.00039578  1
  Ni  Ni19  1  0.83374342  0.16716728  0.16727010  1
  Ni  Ni20  1  0.66682799  0.00059976  0.33379660  1
  Ni  Ni21  1  0.66746818  0.33303791  1.00039119  1
  Ni  Ni22  1  0.83268712  0.49939984  0.16625741  1
  Ni  Ni23  1  0.66715375  0.33332051  0.33344649  1
  Ni  Ni24  1  0.66762697  0.66762527  0.00062191  1
  Ni  Ni25  1  0.83270018  0.83473760  0.16618208  1
  Ni  Ni26  1  0.66572954  0.66733307  0.33344608  1
  Ni  Ni27  1  0.16687568  0.16695500  0.50024214  1
  Ni  Ni28  1  0.00041648  0.00041733  0.66755339  1
  Ni  Ni29  1  0.16704882  0.16720652  0.83368067  1
  Ni  Ni30  1  0.16830269  0.49932403  0.50136929  1
  Ni  Ni31  1  0.00041648  0.33381942  0.66683466  1
  Ni  Ni32  1  0.16710960  0.50039358  0.83367722  1
  Ni  Ni33  1  0.16801415  0.83495705  0.50134421  1
  Ni  Ni34  1  0.00041648  0.66701148  0.66726255  1
  Ni  Ni35  1  0.16719622  0.83366950  0.83370773  1
  Ni  Ni36  1  0.50041648  0.16720841  0.50048071  1
  Ni  Ni37  1  0.33398257  0.00058244  0.66706858  1
  Ni  Ni38  1  0.50041648  0.16709234  0.83367795  1
  Ni  Ni39  1  0.50041648  0.50048660  0.50024152  1
  Ni  Ni40  1  0.33366759  0.33333482  0.66741273  1
  Ni  Ni41  1  0.50041648  0.50057451  0.83400937  1
  Ni  Ni42  1  0.50041648  0.83355512  0.50024449  1
  Ni  Ni43  1  0.33349469  0.66733125  0.66717555  1
  Ni  Ni44  1  0.50041648  0.83358162  0.83367634  1
  Ni  Ni45  1  0.83395727  0.16695500  0.50024214  1
  Ni  Ni46  1  0.66685039  0.00058244  0.66706858  1
  Ni  Ni47  1  0.83378414  0.16720652  0.83368067  1
  Ni  Ni48  1  0.83253026  0.49932403  0.50136929  1
  Ni  Ni49  1  0.66716536  0.33333482  0.66741273  1
  Ni  Ni50  1  0.83372335  0.50039358  0.83367722  1
  Ni  Ni51  1  0.83281880  0.83495705  0.50134421  1
  Ni  Ni52  1  0.66733826  0.66733125  0.66717555  1
  Ni  Ni53  1  0.83363673  0.83366950  0.83370773  1
" 