695,Ni96Fe3Cr0_6,-239.03152034908, 177.38830343251,Ni96Fe3Cr0,"# generated using pymatgen
 data_Cr2FeNi51
_symmetry_space_group_name_H-M   'P 1'
_cell_length_a   7.46238489
_cell_length_b   7.46238489
_cell_length_c   10.55340592
_cell_angle_alpha   90.00000000
_cell_angle_beta   90.00000000
_cell_angle_gamma   90.00000000
_symmetry_Int_Tables_number   1
_chemical_formula_structural   Cr2FeNi51
_chemical_formula_sum   'Cr2 Fe1 Ni51'
_cell_volume   587.68950247
_cell_formula_units_Z   1
loop_
 _symmetry_equiv_pos_site_id
 _symmetry_equiv_pos_as_xyz
  1  'x, y, z'
loop_
 _atom_site_type_symbol
 _atom_site_label
 _atom_site_symmetry_multiplicity
 _atom_site_fract_x
 _atom_site_fract_y
 _atom_site_fract_z
 _atom_site_occupancy
  Ni  Ni0  1  0.00031241  0.00033140  0.00078346  1
  Ni  Ni1  1  0.16659964  0.16711433  0.16638846  1
  Ni  Ni2  1  0.00031241  0.00033062  0.33366664  1
  Ni  Ni3  1  0.00031241  0.33353244  0.00043774  1
  Ni  Ni4  1  0.16768158  0.50077121  0.16722467  1
  Ni  Ni5  1  0.00031241  0.33392129  0.33363864  1
  Ni  Ni6  1  0.00031241  0.66707335  0.00040876  1
  Ni  Ni7  1  0.16548110  0.83305110  0.16638860  1
  Ni  Ni8  1  0.00031241  0.66668494  0.33366701  1
  Ni  Ni9  1  0.33378466  0.00041637  0.00031828  1
  Ni  Ni10  1  0.50031241  0.16931967  0.16530365  1
  Cr  Cr11  1  0.33212701  0.00048655  0.33381835  1
  Ni  Ni12  1  0.33368349  0.33334500  0.00059619  1
  Ni  Ni13  1  0.50031241  0.49965398  0.16747030  1
  Ni  Ni14  1  0.33348941  0.33557009  0.33366686  1
  Ni  Ni15  1  0.33359858  0.66717477  0.00051564  1
  Fe  Fe16  1  0.50031241  0.83183366  0.16517038  1
  Ni  Ni17  1  0.33340334  0.66494824  0.33374857  1
  Ni  Ni18  1  0.66684017  0.00041637  0.00031828  1
  Ni  Ni19  1  0.83402519  0.16711433  0.16638846  1
  Cr  Cr20  1  0.66849782  0.00048655  0.33381835  1
  Ni  Ni21  1  0.66694134  0.33334500  0.00059619  1
  Ni  Ni22  1  0.83294325  0.50077121  0.16722467  1
  Ni  Ni23  1  0.66713542  0.33557009  0.33366686  1
  Ni  Ni24  1  0.66702625  0.66717477  0.00051564  1
  Ni  Ni25  1  0.83514373  0.83305110  0.16638860  1
  Ni  Ni26  1  0.66722149  0.66494824  0.33374857  1
  Ni  Ni27  1  0.16636364  0.16735014  0.50067764  1
  Ni  Ni28  1  0.00031241  0.00031386  0.66648623  1
  Ni  Ni29  1  0.16720357  0.16675182  0.83387157  1
  Ni  Ni30  1  0.16744707  0.50053650  0.49984090  1
  Ni  Ni31  1  0.00031241  0.33353245  0.66686099  1
  Ni  Ni32  1  0.16720610  0.50053664  0.83387167  1
  Ni  Ni33  1  0.16611822  0.83305086  0.50092178  1
  Ni  Ni34  1  0.00031241  0.66709100  0.66686097  1
  Ni  Ni35  1  0.16695635  0.83364883  0.83362564  1
  Ni  Ni36  1  0.50031241  0.16868047  0.50200617  1
  Ni  Ni37  1  0.33389239  1.00030871  0.66687087  1
  Ni  Ni38  1  0.50031241  0.16700125  0.83362592  1
  Ni  Ni39  1  0.50031241  0.50028986  0.49984058  1
  Ni  Ni40  1  0.33370109  0.33334602  0.66667351  1
  Ni  Ni41  1  0.50031241  0.50028906  0.83362536  1
  Ni  Ni42  1  0.50031241  0.83196551  0.50152453  1
  Ni  Ni43  1  0.33370626  0.66728250  0.66667359  1
  Ni  Ni44  1  0.50031241  0.83364630  0.83410749  1
  Ni  Ni45  1  0.83426119  0.16735014  0.50067764  1
  Ni  Ni46  1  0.66673244  1.00030871  0.66687087  1
  Ni  Ni47  1  0.83342126  0.16675182  0.83387157  1
  Ni  Ni48  1  0.83317776  0.50053650  0.49984090  1
  Ni  Ni49  1  0.66692374  0.33334602  0.66667351  1
  Ni  Ni50  1  0.83341872  0.50053664  0.83387167  1
  Ni  Ni51  1  0.83450661  0.83305086  0.50092178  1
  Ni  Ni52  1  0.66691857  0.66728250  0.66667359  1
  Ni  Ni53  1  0.83366848  0.83364883  0.83362564  1
" 