7472,Ni96Fe2Cr0_8,-239.841623209368, 180.327182199036,Ni96Fe2Cr0,"# generated using pymatgen
 data_CrFeNi52
_symmetry_space_group_name_H-M   'P 1'
_cell_length_a   7.46083309
_cell_length_b   7.46083309
_cell_length_c   10.55121135
_cell_angle_alpha   90.00000000
_cell_angle_beta   90.00000000
_cell_angle_gamma   90.00000000
_symmetry_Int_Tables_number   1
_chemical_formula_structural   CrFeNi52
_chemical_formula_sum   'Cr1 Fe1 Ni52'
_cell_volume   587.32294967
_cell_formula_units_Z   1
loop_
 _symmetry_equiv_pos_site_id
 _symmetry_equiv_pos_as_xyz
  1  'x, y, z'
loop_
 _atom_site_type_symbol
 _atom_site_label
 _atom_site_symmetry_multiplicity
 _atom_site_fract_x
 _atom_site_fract_y
 _atom_site_fract_z
 _atom_site_occupancy
  Ni  Ni0  1  1.00000149  1.00033426  1.00008689  1
  Ni  Ni1  1  0.16715326  0.16708314  0.16725810  1
  Ni  Ni2  1  0.99998718  1.00034587  0.33405312  1
  Ni  Ni3  1  1.00000149  0.33383203  1.00008689  1
  Ni  Ni4  1  0.16599070  0.49919693  0.16613033  1
  Ni  Ni5  1  0.99998718  0.33382041  0.33405312  1
  Ni  Ni6  1  0.00048609  0.66708314  0.00066496  1
  Ni  Ni7  1  0.16599070  0.83496936  0.16613033  1
  Ni  Ni8  1  0.99884525  0.66708314  0.33368783  1
  Ni  Ni9  1  0.33399792  1.00016136  1.00032407  1
  Ni  Ni10  1  0.50022179  0.16708314  0.16725513  1
  Ni  Ni11  1  0.33399974  0.00177008  0.33405354  1
  Ni  Ni12  1  0.33399792  0.33400493  1.00032407  1
  Ni  Ni13  1  0.50162372  0.49948547  0.16615541  1
  Ni  Ni14  1  0.33399974  0.33239621  0.33405354  1
  Ni  Ni15  1  0.33367815  0.66708314  1.00023707  1
  Ni  Ni16  1  0.50162372  0.83468081  0.16615541  1
  Cr  Cr17  1  0.33334565  0.66708314  0.33339648  1
  Ni  Ni18  1  0.66724910  0.00064923  0.00043104  1
  Ni  Ni19  1  0.83387508  0.16708314  0.16701891  1
  Ni  Ni20  1  0.66726643  0.00067163  0.33370302  1
  Ni  Ni21  1  0.66724910  0.33351705  0.00043104  1
  Ni  Ni22  1  0.83362167  0.50062394  0.16725748  1
  Ni  Ni23  1  0.66726643  0.33349466  0.33370302  1
  Ni  Ni24  1  0.66708400  0.66708314  0.99994623  1
  Ni  Ni25  1  0.83362167  0.83354235  0.16725748  1
  Ni  Ni26  1  0.66863061  0.66708314  0.33441776  1
  Ni  Ni27  1  0.16714891  0.16708314  0.50050506  1
  Ni  Ni28  1  0.99970458  1.00003143  0.66710843  1
  Ni  Ni29  1  0.16724117  0.16708314  0.83349025  1
  Ni  Ni30  1  0.16606651  0.49935379  0.50124221  1
  Ni  Ni31  1  0.99970458  0.33413485  0.66710843  1
  Ni  Ni32  1  0.16706024  0.50039002  0.83382240  1
  Ni  Ni33  1  0.16606651  0.83481250  0.50124221  1
  Ni  Ni34  1  0.00129388  0.66708314  0.66687250  1
  Ni  Ni35  1  0.16706024  0.83377627  0.83382240  1
  Ni  Ni36  1  0.50034159  0.16708314  0.50017491  1
  Ni  Ni37  1  0.33429193  0.99987265  0.66687771  1
  Ni  Ni38  1  0.50024829  0.16708314  0.83382328  1
  Ni  Ni39  1  0.50140427  0.49936684  0.50131754  1
  Ni  Ni40  1  0.33429193  0.33429364  0.66687771  1
  Ni  Ni41  1  0.50033616  0.50030340  0.83379189  1
  Ni  Ni42  1  0.50140427  0.83479944  0.50131754  1
  Ni  Ni43  1  0.33299944  0.66708314  0.66731770  1
  Ni  Ni44  1  0.50033616  0.83386289  0.83379189  1
  Ni  Ni45  1  0.83376220  0.16708314  0.50040550  1
  Ni  Ni46  1  0.66724263  0.00138136  0.66710384  1
  Ni  Ni47  1  0.83375901  0.16708314  0.83382166  1
  Ni  Ni48  1  0.83383395  0.50041008  0.50022952  1
  Ni  Ni49  1  0.66724263  0.33278493  0.66710384  1
  Ni  Ni50  1  0.83387319  0.50045080  0.83381895  1
  Ni  Ni51  1  0.83383395  0.83375620  0.50022952  1
  Fe  Fe52  1  0.66727255  0.66708314  0.66718163  1
  Ni  Ni53  1  0.83387319  0.83371548  0.83381895  1
" 