6010,Ni96Fe3Cr0_1,-239.010745403144, 177.883627153023,Ni96Fe3Cr0,"# generated using pymatgen
 data_Cr2FeNi51
_symmetry_space_group_name_H-M   'P 1'
_cell_length_a   7.46164916
_cell_length_b   7.46164916
_cell_length_c   10.55236544
_cell_angle_alpha   90.00000000
_cell_angle_beta   90.00000000
_cell_angle_gamma   90.00000000
_symmetry_Int_Tables_number   1
_chemical_formula_structural   Cr2FeNi51
_chemical_formula_sum   'Cr2 Fe1 Ni51'
_cell_volume   587.51569492
_cell_formula_units_Z   1
loop_
 _symmetry_equiv_pos_site_id
 _symmetry_equiv_pos_as_xyz
  1  'x, y, z'
loop_
 _atom_site_type_symbol
 _atom_site_label
 _atom_site_symmetry_multiplicity
 _atom_site_fract_x
 _atom_site_fract_y
 _atom_site_fract_z
 _atom_site_occupancy
  Ni  Ni0  1  0.99931966  0.00072518  0.99964894  1
  Ni  Ni1  1  0.16535753  0.16869929  0.16693253  1
  Ni  Ni2  1  0.99926111  0.00141267  0.33451277  1
  Fe  Fe3  1  1.00012585  0.33393098  1.00013811  1
  Ni  Ni4  1  0.16686277  0.49902229  0.16697250  1
  Ni  Ni5  1  0.00042300  0.33363383  0.33270080  1
  Ni  Ni6  1  0.99935959  0.66686081  0.99944359  1
  Cr  Cr7  1  0.16740910  0.83374978  0.16744637  1
  Ni  Ni8  1  0.99930114  0.66603845  0.33471105  1
  Ni  Ni9  1  0.33313984  0.00091698  0.99849279  1
  Cr  Cr10  1  0.50030704  0.16664772  0.16744637  1
  Ni  Ni11  1  0.33344311  0.00061372  0.33536025  1
  Ni  Ni12  1  0.33333165  0.33473717  0.99964894  1
  Ni  Ni13  1  0.50052647  0.50165905  0.16709952  1
  Ni  Ni14  1  0.33264415  0.33479571  0.33451277  1
  Ni  Ni15  1  0.33423296  0.66540408  0.99961792  1
  Ni  Ni16  1  0.50206438  0.83199244  0.16674270  1
  Ni  Ni17  1  0.33460113  0.66565672  0.33417663  1
  Ni  Ni18  1  0.66865275  0.99982386  0.99961792  1
  Ni  Ni19  1  0.83503454  0.16719406  0.16697250  1
  Ni  Ni20  1  0.66840010  0.99945569  0.33417663  1
  Ni  Ni21  1  0.66719601  0.33469723  0.99944359  1
  Ni  Ni22  1  0.83364972  0.50040711  0.16701703  1
  Ni  Ni23  1  0.66801838  0.33475569  0.33471105  1
  Ni  Ni24  1  0.66753281  0.66652402  0.00067425  1
  Ni  Ni25  1  0.83239777  0.83353036  0.16709952  1
  Ni  Ni26  1  0.66721389  0.66684293  0.33305952  1
  Ni  Ni27  1  0.16686232  0.16719450  0.49994151  1
  Ni  Ni28  1  1.00034478  0.00048237  0.66698776  1
  Ni  Ni29  1  0.16710209  0.16695474  0.83405311  1
  Ni  Ni30  1  0.16669032  0.50038064  0.50019195  1
  Ni  Ni31  1  0.00053367  0.33352316  0.66771839  1
  Ni  Ni32  1  0.16697538  0.50064731  0.83378635  1
  Ni  Ni33  1  0.16697495  0.83350418  0.50063127  1
  Ni  Ni34  1  1.00034404  0.66707639  0.66699076  1
  Ni  Ni35  1  0.16684999  0.83349801  0.83334644  1
  Ni  Ni36  1  0.50055265  0.16708188  0.50063127  1
  Ni  Ni37  1  0.33344628  0.00061055  0.66733624  1
  Ni  Ni38  1  0.50055882  0.16720683  0.83334644  1
  Ni  Ni39  1  0.50055180  0.50032888  0.50019790  1
  Ni  Ni40  1  0.33357446  0.33371205  0.66698776  1
  Ni  Ni41  1  0.50055799  0.50021671  0.83377514  1
  Ni  Ni42  1  0.50037617  0.83368066  0.49993873  1
  Ni  Ni43  1  0.33363749  0.66676317  0.66733537  1
  Ni  Ni44  1  0.50038469  0.83367213  0.83438714  1
  Ni  Ni45  1  0.83367619  0.16736651  0.50019195  1
  Ni  Ni46  1  0.66729365  0.00041933  0.66733537  1
  Ni  Ni47  1  0.83340952  0.16708144  0.83378635  1
  Ni  Ni48  1  0.83384562  0.50021120  0.50042765  1
  Ni  Ni49  1  0.66698044  0.33371279  0.66699076  1
  Ni  Ni50  1  0.83353351  0.50052331  0.83353461  1
  Ni  Ni51  1  0.83372794  0.83350502  0.50019790  1
  Ni  Ni52  1  0.66710295  0.66695388  0.66733451  1
  Ni  Ni53  1  0.83384011  0.83349883  0.83377514  1
" 