4203,Ni96Fe3Cr0_2,-239.052321302686, 177.40273789514,Ni96Fe3Cr0,"# generated using pymatgen
 data_Cr2FeNi51
_symmetry_space_group_name_H-M   'P 1'
_cell_length_a   7.46154226
_cell_length_b   7.46154226
_cell_length_c   10.55221427
_cell_angle_alpha   90.00000000
_cell_angle_beta   90.00000000
_cell_angle_gamma   90.00000000
_symmetry_Int_Tables_number   1
_chemical_formula_structural   Cr2FeNi51
_chemical_formula_sum   'Cr2 Fe1 Ni51'
_cell_volume   587.49044534
_cell_formula_units_Z   1
loop_
 _symmetry_equiv_pos_site_id
 _symmetry_equiv_pos_as_xyz
  1  'x, y, z'
loop_
 _atom_site_type_symbol
 _atom_site_label
 _atom_site_symmetry_multiplicity
 _atom_site_fract_x
 _atom_site_fract_y
 _atom_site_fract_z
 _atom_site_occupancy
  Ni  Ni0  1  0.99953040  0.00166367  0.99934544  1
  Ni  Ni1  1  0.16611333  0.16979958  0.16611011  1
  Ni  Ni2  1  0.99801389  0.00167576  0.33492209  1
  Ni  Ni3  1  1.00017750  0.33389918  0.00054130  1
  Ni  Ni4  1  0.16723544  0.49861609  0.16719890  1
  Ni  Ni5  1  1.00015997  0.33390329  0.33349910  1
  Ni  Ni6  1  0.99941396  0.66558577  0.99915950  1
  Cr  Cr7  1  0.16566701  0.83245446  0.16594706  1
  Ni  Ni8  1  0.99937952  0.66554909  0.33490857  1
  Ni  Ni9  1  0.33474977  0.00131980  0.99930129  1
  Ni  Ni10  1  0.50147514  0.16843499  0.16612197  1
  Cr  Cr11  1  0.33490751  0.00114149  0.33437013  1
  Ni  Ni12  1  0.33365380  0.33374142  1.00004097  1
  Ni  Ni13  1  0.50035521  0.50003457  0.16719610  1
  Ni  Ni14  1  0.33365547  0.33526003  0.33421568  1
  Ni  Ni15  1  0.33475010  0.66603821  0.99971063  1
  Ni  Ni16  1  0.50314454  0.83260780  0.16608479  1
  Ni  Ni17  1  0.33475870  0.66449089  0.33452827  1
  Ni  Ni18  1  0.66681971  0.00056082  0.00042672  1
  Ni  Ni19  1  0.83350382  0.16703604  0.16719354  1
  Ni  Ni20  1  0.66840562  0.00056422  0.33384409  1
  Ni  Ni21  1  0.66728752  0.33388574  1.00030850  1
  Ni  Ni22  1  0.83352951  0.50032835  0.16696717  1
  Ni  Ni23  1  0.66728482  0.33387761  0.33372390  1
  Ni  Ni24  1  0.66698636  0.66666670  1.00020078  1
  Ni  Ni25  1  0.83208541  0.83375533  0.16720028  1
  Ni  Ni26  1  0.66698407  0.66665770  0.33384614  1
  Ni  Ni27  1  0.16599903  0.16805329  0.50107567  1
  Ni  Ni28  1  0.00086970  0.00092106  0.66683933  1
  Ni  Ni29  1  0.16691742  0.16696405  0.83394631  1
  Ni  Ni30  1  0.16701104  0.50042425  0.49999572  1
  Ni  Ni31  1  0.99956121  0.33388237  0.66706780  1
  Ni  Ni32  1  0.16707400  0.50049312  0.83398696  1
  Ni  Ni33  1  0.16598074  0.83269531  0.50141545  1
  Ni  Ni34  1  0.00071376  0.66629966  0.66706953  1
  Ni  Ni35  1  0.16700888  0.83367826  0.83355348  1
  Ni  Ni36  1  0.50155594  0.16817209  0.50126428  1
  Ni  Ni37  1  0.33371940  0.99964838  0.66726612  1
  Ni  Ni38  1  0.50066219  0.16713820  0.83370440  1
  Ni  Ni39  1  0.50056484  0.50025406  0.50022671  1
  Fe  Fe40  1  0.33354392  0.33389393  0.66713132  1
  Ni  Ni41  1  0.50051132  0.50030576  0.83372980  1
  Ni  Ni42  1  0.50146103  0.83269556  0.50099920  1
  Ni  Ni43  1  0.33372104  0.66787289  0.66683387  1
  Ni  Ni44  1  0.50040654  0.83367665  0.83397435  1
  Ni  Ni45  1  0.83350297  0.16715498  0.50016458  1
  Ni  Ni46  1  0.66651156  0.00073592  0.66682741  1
  Ni  Ni47  1  0.83351291  0.16704584  0.83373878  1
  Ni  Ni48  1  0.83351655  0.50019630  0.50039307  1
  Ni  Ni49  1  0.66801594  0.33388708  0.66707265  1
  Ni  Ni50  1  0.83350809  0.50018446  0.83373211  1
  Ni  Ni51  1  0.83366760  0.83375142  0.50028686  1
  Ni  Ni52  1  0.66668055  0.66647909  0.66707280  1
  Ni  Ni53  1  0.83369511  0.83386886  0.83363982  1
" 