5187,Ni96Fe2Cr1_9,-239.852743372738, 180.417090412269,Ni96Fe2Cr1,"# generated using pymatgen
 data_CrFeNi52
_symmetry_space_group_name_H-M   'P 1'
_cell_length_a   7.46235066
_cell_length_b   7.46235066
_cell_length_c   10.55335750
_cell_angle_alpha   90.00000000
_cell_angle_beta   90.00000000
_cell_angle_gamma   90.00000000
_symmetry_Int_Tables_number   1
_chemical_formula_structural   CrFeNi52
_chemical_formula_sum   'Cr1 Fe1 Ni52'
_cell_volume   587.68141379
_cell_formula_units_Z   1
loop_
 _symmetry_equiv_pos_site_id
 _symmetry_equiv_pos_as_xyz
  1  'x, y, z'
loop_
 _atom_site_type_symbol
 _atom_site_label
 _atom_site_symmetry_multiplicity
 _atom_site_fract_x
 _atom_site_fract_y
 _atom_site_fract_z
 _atom_site_occupancy
  Ni  Ni0  1  0.99851816  0.00041684  1.00022068  1
  Ni  Ni1  1  0.16614752  0.16847930  0.16779546  1
  Ni  Ni2  1  0.00042038  0.00041283  0.33350554  1
  Ni  Ni3  1  1.00015969  0.33378041  1.00028737  1
  Ni  Ni4  1  0.16719442  0.49965760  0.16675373  1
  Ni  Ni5  1  0.00032202  0.33361673  0.33363128  1
  Ni  Ni6  1  1.00007736  0.66674403  1.00022371  1
  Fe  Fe7  1  0.16610241  0.83276908  0.16784604  1
  Ni  Ni8  1  1.00024329  0.66690995  0.33369160  1
  Cr  Cr9  1  0.33381952  0.00048619  1.00015075  1
  Ni  Ni10  1  0.50069251  0.16735918  0.16779598  1
  Ni  Ni11  1  0.33374719  0.00041385  0.33388376  1
  Ni  Ni12  1  0.33366407  0.33533347  1.00028847  1
  Ni  Ni13  1  0.49964924  0.50076794  0.16675394  1
  Ni  Ni14  1  0.33366676  0.33344061  0.33344404  1
  Ni  Ni15  1  0.33375018  0.66518483  1.00022068  1
  Ni  Ni16  1  0.50181263  0.83281418  0.16779546  1
  Ni  Ni17  1  0.33374616  0.66708705  0.33350554  1
  Ni  Ni18  1  0.66866681  0.00033074  1.00028847  1
  Ni  Ni19  1  0.83410127  0.16631591  0.16675394  1
  Ni  Ni20  1  0.66677395  0.00033342  0.33344404  1
  Ni  Ni21  1  0.66711919  0.33378585  0.00035327  1
  Ni  Ni22  1  0.83409828  0.50076494  0.16698969  1
  Ni  Ni23  1  0.66695513  0.33362180  0.33356317  1
  Ni  Ni24  1  0.66711374  0.66682635  1.00028737  1
  Ni  Ni25  1  0.83299094  0.83386108  0.16675373  1
  Ni  Ni26  1  0.66695006  0.66698868  0.33363128  1
  Ni  Ni27  1  0.16697973  0.16701239  0.50033837  1
  Ni  Ni28  1  0.00053958  1.00029423  0.66721420  1
  Ni  Ni29  1  0.16614527  0.16783930  0.83281557  1
  Ni  Ni30  1  0.16700364  0.50028320  0.50034048  1
  Ni  Ni31  1  0.00032415  0.33362168  0.66702739  1
  Ni  Ni32  1  0.16719475  0.50028594  0.83385371  1
  Ni  Ni33  1  0.16697946  0.83364612  0.49984654  1
  Ni  Ni34  1  0.00036169  0.66702836  0.66702728  1
  Ni  Ni35  1  0.16614691  0.83281358  0.83330830  1
  Ni  Ni36  1  0.50009687  0.16676354  0.50008732  1
  Ni  Ni37  1  0.33362764  1.00029431  0.66683707  1
  Ni  Ni38  1  0.50093342  0.16760009  0.83305729  1
  Ni  Ni39  1  0.50007261  0.50053435  0.50008692  1
  Ni  Ni40  1  0.33366503  0.33344329  0.66721481  1
  Ni  Ni41  1  0.49988181  0.50053391  0.83410362  1
  Ni  Ni42  1  0.50034572  0.83364640  0.50033837  1
  Ni  Ni43  1  0.33362756  0.66720625  0.66721420  1
  Ni  Ni44  1  0.50117263  0.83281194  0.83281557  1
  Ni  Ni45  1  0.83386768  0.16673927  0.50008692  1
  Ni  Ni46  1  0.66677663  0.00033170  0.66721481  1
  Ni  Ni47  1  0.83386724  0.16654847  0.83410362  1
  Ni  Ni48  1  0.83386805  0.50053471  0.50008655  1
  Ni  Ni49  1  0.66695520  0.33362187  0.66702722  1
  Ni  Ni50  1  0.83386736  0.50053403  0.83386762  1
  Ni  Ni51  1  0.83361654  0.83367030  0.50034048  1
  Ni  Ni52  1  0.66695502  0.66699082  0.66702739  1
  Ni  Ni53  1  0.83361927  0.83386141  0.83385371  1
" 