8464,Ni96Fe3Cr0_16,-239.049359168464, 178.238389421098,Ni96Fe3Cr0,"# generated using pymatgen
 data_Cr2FeNi51
_symmetry_space_group_name_H-M   'P 1'
_cell_length_a   7.46149913
_cell_length_b   7.46149913
_cell_length_c   10.55215327
_cell_angle_alpha   90.00000000
_cell_angle_beta   90.00000000
_cell_angle_gamma   90.00000000
_symmetry_Int_Tables_number   1
_chemical_formula_structural   Cr2FeNi51
_chemical_formula_sum   'Cr2 Fe1 Ni51'
_cell_volume   587.48025660
_cell_formula_units_Z   1
loop_
 _symmetry_equiv_pos_site_id
 _symmetry_equiv_pos_as_xyz
  1  'x, y, z'
loop_
 _atom_site_type_symbol
 _atom_site_label
 _atom_site_symmetry_multiplicity
 _atom_site_fract_x
 _atom_site_fract_y
 _atom_site_fract_z
 _atom_site_occupancy
  Ni  Ni0  1  0.00038928  1.00036062  1.00025467  1
  Ni  Ni1  1  0.16716679  0.16700504  0.16726655  1
  Ni  Ni2  1  0.00128580  0.99933417  0.33279728  1
  Ni  Ni3  1  0.00119856  0.33242165  0.00100699  1
  Ni  Ni4  1  0.16716436  0.50051983  0.16680843  1
  Ni  Ni5  1  0.00118938  0.33449124  0.33308056  1
  Ni  Ni6  1  0.00104034  0.66834395  0.00100902  1
  Ni  Ni7  1  0.16733183  0.83359224  0.16704012  1
  Ni  Ni8  1  1.00006597  0.66729166  0.33417177  1
  Ni  Ni9  1  0.33361860  0.00051613  0.00049315  1
  Ni  Ni10  1  0.50036956  0.16676535  0.16726006  1
  Ni  Ni11  1  0.33364119  0.00044839  0.33384261  1
  Ni  Ni12  1  0.33394774  0.33339269  0.99990243  1
  Ni  Ni13  1  0.50013038  0.50051842  0.16681350  1
  Ni  Ni14  1  0.33394605  0.33352897  0.33417091  1
  Ni  Ni15  1  0.33395019  0.66720847  0.99990098  1
  Ni  Ni16  1  0.50020769  0.83383249  0.16703682  1
  Ni  Ni17  1  0.33394695  0.66713577  0.33393911  1
  Ni  Ni18  1  0.66709955  1.00035874  0.99957871  1
  Ni  Ni19  1  0.83357924  0.16693474  0.16660419  1
  Ni  Ni20  1  0.66615690  0.99934486  0.33347818  1
  Ni  Ni21  1  0.66598849  0.33275336  0.00132188  1
  Ni  Ni22  1  0.83381995  0.50035019  0.16746838  1
  Ni  Ni23  1  0.66599098  0.33474212  0.33280346  1
  Ni  Ni24  1  0.66614391  0.66799751  0.00134038  1
  Ni  Ni25  1  0.83357881  0.83382858  0.16703345  1
  Ni  Ni26  1  0.66710057  0.66698441  0.33384238  1
  Ni  Ni27  1  0.16869991  0.16689497  0.50029961  1
  Ni  Ni28  1  0.00207706  0.99933913  0.66809833  1
  Ni  Ni29  1  0.16717027  0.16688850  0.83357636  1
  Ni  Ni30  1  0.16719327  0.50054277  0.50081471  1
  Ni  Ni31  1  0.00183483  0.33316378  0.66705122  1
  Ni  Ni32  1  0.16881770  0.50051627  0.83348218  1
  Ni  Ni33  1  0.16733441  0.83366855  0.50028970  1
  Ni  Ni34  1  0.00076800  0.66859543  0.66598760  1
  Ni  Ni35  1  0.16733000  0.83370984  0.83380523  1
  Ni  Ni36  1  0.49852530  0.16703616  0.50026962  1
  Ni  Ni37  1  0.33286957  0.00044893  0.66680807  1
  Ni  Ni38  1  0.50015034  0.16692643  0.83351634  1
  Ni  Ni39  1  0.50020457  0.50050778  0.50050561  1
  Ni  Ni40  1  0.33424375  0.33316992  0.66703720  1
  Ni  Ni41  1  0.49867629  0.50048453  0.83379200  1
  Ni  Ni42  1  0.49993119  0.83355240  0.50028674  1
  Ni  Ni43  1  0.33422457  0.66748258  0.66726760  1
  Ni  Ni44  1  0.49998466  0.83367622  0.83373730  1
  Cr  Cr45  1  0.83389098  0.16721394  0.50044204  1
  Fe  Fe46  1  0.66592160  0.99943759  0.66779754  1
  Ni  Ni47  1  0.83373919  0.16549733  0.83391238  1
  Ni  Ni48  1  0.83370412  0.50187169  0.50009135  1
  Ni  Ni49  1  0.66504686  0.33453085  0.66706674  1
  Cr  Cr50  1  0.83400256  0.50036059  0.83387268  1
  Ni  Ni51  1  0.83381563  0.83199041  0.50052166  1
  Ni  Ni52  1  0.66613500  0.66727558  0.66600918  1
  Ni  Ni53  1  0.83373690  0.83529381  0.83347262  1
" 