1100,Ni96Fe2Cr1_13,-239.852743372738, 180.417106704997,Ni96Fe2Cr1,"# generated using pymatgen
 data_CrFeNi52
_symmetry_space_group_name_H-M   'P 1'
_cell_length_a   7.46235066
_cell_length_b   7.46235066
_cell_length_c   10.55335750
_cell_angle_alpha   90.00000000
_cell_angle_beta   90.00000000
_cell_angle_gamma   90.00000000
_symmetry_Int_Tables_number   1
_chemical_formula_structural   CrFeNi52
_chemical_formula_sum   'Cr1 Fe1 Ni52'
_cell_volume   587.68141379
_cell_formula_units_Z   1
loop_
 _symmetry_equiv_pos_site_id
 _symmetry_equiv_pos_as_xyz
  1  'x, y, z'
loop_
 _atom_site_type_symbol
 _atom_site_label
 _atom_site_symmetry_multiplicity
 _atom_site_fract_x
 _atom_site_fract_y
 _atom_site_fract_z
 _atom_site_occupancy
  Ni  Ni0  1  0.99862928  1.00029868  0.00034095  1
  Ni  Ni1  1  0.16612346  0.16781748  0.16781385  1
  Ni  Ni2  1  0.00051946  1.00029772  0.33341461  1
  Ni  Ni3  1  1.00018235  0.33380307  0.00034205  1
  Ni  Ni4  1  0.16741428  0.50009551  0.16652580  1
  Ni  Ni5  1  0.00034107  0.33363860  0.33360203  1
  Ni  Ni6  1  1.00017690  0.66684357  1.00027615  1
  Ni  Ni7  1  0.16636266  0.83302933  0.16757213  1
  Ni  Ni8  1  0.00034088  0.66700755  0.33360220  1
  Cr  Cr9  1  0.33347657  1.00014323  0.00047867  1
  Ni  Ni10  1  0.50114917  0.16781584  0.16732112  1
  Ni  Ni11  1  0.33366845  0.00033511  0.33379235  1
  Ni  Ni12  1  0.33354591  0.33544459  0.00040874  1
  Ni  Ni13  1  0.50010134  0.50034348  0.16677571  1
  Ni  Ni14  1  0.33366853  0.33342317  0.33341522  1
  Ni  Ni15  1  0.33363202  0.66529595  0.00034095  1
  Ni  Ni16  1  0.50115081  0.83279012  0.16781385  1
  Ni  Ni17  1  0.33363105  0.66718613  0.33341461  1
  Ni  Ni18  1  0.66877792  1.00021258  0.00040874  1
  Ni  Ni19  1  0.83367682  0.16676801  0.16677571  1
  Ni  Ni20  1  0.66675650  0.00033519  0.33341522  1
  Ni  Ni21  1  0.66721872  0.33388539  0.00040571  1
  Ni  Ni22  1  0.83342872  0.50009539  0.16676180  1
  Ni  Ni23  1  0.66693439  0.33360106  0.33360214  1
  Ni  Ni24  1  0.66713640  0.66684901  0.00034205  1
  Ni  Ni25  1  0.83342885  0.83408095  0.16652580  1
  Ni  Ni26  1  0.66697194  0.66700774  0.33360203  1
  Ni  Ni27  1  0.16695036  0.16698302  0.50029105  1
  Ni  Ni28  1  0.00052214  1.00029600  0.66718538  1
  Ni  Ni29  1  0.16548346  0.16781524  0.83283396  1
  Ni  Ni30  1  0.16722348  0.50009507  0.50054250  1
  Ni  Ni31  1  0.00034603  0.33364074  0.66699814  1
  Ni  Ni32  1  0.16764684  0.49986148  0.83387548  1
  Ni  Ni33  1  0.16719922  0.83386588  0.50054210  1
  Ni  Ni34  1  0.00034095  0.66700762  0.66706625  1
  Ni  Ni35  1  0.16660357  0.83327024  0.83283344  1
  Ni  Ni36  1  0.50031663  0.16698330  0.50078288  1
  Ni  Ni37  1  0.33354890  1.00021557  0.66674566  1
  Fe  Fe38  1  0.50119368  0.16786034  0.83278338  1
  Ni  Ni39  1  0.50029245  0.50034622  0.50028894  1
  Ni  Ni40  1  0.33354992  0.33354237  0.66712388  1
  Ni  Ni41  1  0.50010167  0.50097182  0.83387569  1
  Ni  Ni42  1  0.50031635  0.83361703  0.50029105  1
  Ni  Ni43  1  0.33362933  0.66718881  0.66718538  1
  Ni  Ni44  1  0.50114857  0.83215013  0.83283396  1
  Ni  Ni45  1  0.83367955  0.16695912  0.50028894  1
  Ni  Ni46  1  0.66687570  1.00021659  0.66712388  1
  Ni  Ni47  1  0.83430515  0.16676834  0.83387569  1
  Ni  Ni48  1  0.83342804  0.50009471  0.50054287  1
  Ni  Ni49  1  0.66705280  0.33371947  0.66693782  1
  Ni  Ni50  1  0.83319781  0.49986448  0.83363973  1
  Ni  Ni51  1  0.83342841  0.83389015  0.50054250  1
  Ni  Ni52  1  0.66697407  0.66701270  0.66699814  1
  Ni  Ni53  1  0.83319481  0.83431351  0.83387548  1
" 