8195,Ni96Fe2Cr1_18,-239.833373914862, 180.475841235153,Ni96Fe2Cr1,"# generated using pymatgen
 data_CrFeNi52
_symmetry_space_group_name_H-M   'P 1'
_cell_length_a   7.46098754
_cell_length_b   7.46098754
_cell_length_c   10.55142977
_cell_angle_alpha   90.00000000
_cell_angle_beta   90.00000000
_cell_angle_gamma   90.00000000
_symmetry_Int_Tables_number   1
_chemical_formula_structural   CrFeNi52
_chemical_formula_sum   'Cr1 Fe1 Ni52'
_cell_volume   587.35942484
_cell_formula_units_Z   1
loop_
 _symmetry_equiv_pos_site_id
 _symmetry_equiv_pos_as_xyz
  1  'x, y, z'
loop_
 _atom_site_type_symbol
 _atom_site_label
 _atom_site_symmetry_multiplicity
 _atom_site_fract_x
 _atom_site_fract_y
 _atom_site_fract_z
 _atom_site_occupancy
  Ni  Ni0  1  0.00141243  0.00064389  0.00127896  1
  Ni  Ni1  1  0.16734763  0.16710791  0.16716040  1
  Ni  Ni2  1  0.00042209  1.00035675  0.33378021  1
  Fe  Fe3  1  0.00060226  0.33373945  0.00049590  1
  Ni  Ni4  1  0.16734763  0.50037099  0.16716040  1
  Ni  Ni5  1  1.00025409  0.33373945  0.33307696  1
  Ni  Ni6  1  0.00141243  0.66683501  0.00127896  1
  Ni  Ni7  1  0.16708234  0.83373945  0.16694548  1
  Ni  Ni8  1  0.00042209  0.66712215  0.33378021  1
  Ni  Ni9  1  0.33319355  0.00088395  1.00023763  1
  Ni  Ni10  1  0.50023969  0.16721935  0.16716671  1
  Ni  Ni11  1  0.33349288  0.00050007  0.33344043  1
  Ni  Ni12  1  0.33459008  0.33373945  0.00046845  1
  Ni  Ni13  1  0.50023969  0.50025955  0.16716671  1
  Ni  Ni14  1  0.33380341  0.33373945  0.33377885  1
  Ni  Ni15  1  0.33319355  0.66659495  1.00023763  1
  Ni  Ni16  1  0.50041349  0.83373945  0.16661356  1
  Ni  Ni17  1  0.33349288  0.66697883  0.33344043  1
  Ni  Ni18  1  0.66658424  0.00197949  0.00130289  1
  Ni  Ni19  1  0.83364752  0.16697529  0.16690999  1
  Ni  Ni20  1  0.66730387  0.00066977  0.33343960  1
  Ni  Ni21  1  0.66640875  0.33373945  1.00023458  1
  Ni  Ni22  1  0.83364752  0.50050361  0.16690999  1
  Ni  Ni23  1  0.66715812  0.33373945  0.33378152  1
  Ni  Ni24  1  0.66658424  0.66549941  0.00130289  1
  Ni  Ni25  1  0.83372873  0.83373945  0.16737332  1
  Ni  Ni26  1  0.66730387  0.66680913  0.33343960  1
  Ni  Ni27  1  0.16709871  0.16736556  0.50038212  1
  Ni  Ni28  1  0.00146439  0.00140047  0.66611151  1
  Ni  Ni29  1  0.16732374  0.16718698  0.83372276  1
  Ni  Ni30  1  0.16709871  0.50011334  0.50038212  1
  Ni  Ni31  1  1.00033330  0.33373945  0.66790030  1
  Ni  Ni32  1  0.16732374  0.50029192  0.83372276  1
  Ni  Ni33  1  0.16718229  0.83373945  0.50061578  1
  Ni  Ni34  1  0.00146439  0.66607844  0.66611151  1
  Ni  Ni35  1  0.16862918  0.83373945  0.83367560  1
  Ni  Ni36  1  0.50024481  0.16711207  0.50037940  1
  Ni  Ni37  1  0.33349410  0.00058102  0.66754799  1
  Ni  Ni38  1  0.50022761  0.16723610  0.83366474  1
  Ni  Ni39  1  0.50024481  0.50036683  0.50037940  1
  Ni  Ni40  1  0.33380897  0.33373945  0.66696567  1
  Ni  Ni41  1  0.50022761  0.50024280  0.83366474  1
  Ni  Ni42  1  0.50042103  0.83373945  0.50061966  1
  Ni  Ni43  1  0.33349410  0.66689788  0.66754799  1
  Ni  Ni44  1  0.49875322  0.83373945  0.83399323  1
  Ni  Ni45  1  0.83387255  0.16719267  0.50061838  1
  Ni  Ni46  1  0.66624020  0.00173417  0.66642890  1
  Ni  Ni47  1  0.83370775  0.16864311  0.83376187  1
  Ni  Ni48  1  0.83387255  0.50028624  0.50061838  1
  Ni  Ni49  1  0.66706801  0.33373945  0.66719377  1
  Ni  Ni50  1  0.83370775  0.49883579  0.83376187  1
  Ni  Ni51  1  0.83361752  0.83373945  0.50018387  1
  Ni  Ni52  1  0.66624020  0.66574473  0.66642890  1
  Cr  Cr53  1  0.83343999  0.83373945  0.83334485  1
" 