5334,Ni96Fe2Cr0_13,-239.842908793051, 180.359577978243,Ni96Fe2Cr0,"# generated using pymatgen
 data_CrFeNi52
_symmetry_space_group_name_H-M   'P 1'
_cell_length_a   7.46224677
_cell_length_b   7.46224677
_cell_length_c   10.55321059
_cell_angle_alpha   90.00000000
_cell_angle_beta   90.00000000
_cell_angle_gamma   90.00000000
_symmetry_Int_Tables_number   1
_chemical_formula_structural   CrFeNi52
_chemical_formula_sum   'Cr1 Fe1 Ni52'
_cell_volume   587.65687005
_cell_formula_units_Z   1
loop_
 _symmetry_equiv_pos_site_id
 _symmetry_equiv_pos_as_xyz
  1  'x, y, z'
loop_
 _atom_site_type_symbol
 _atom_site_label
 _atom_site_symmetry_multiplicity
 _atom_site_fract_x
 _atom_site_fract_y
 _atom_site_fract_z
 _atom_site_occupancy
  Ni  Ni0  1  1.00013308  1.00006485  0.00060041  1
  Ni  Ni1  1  0.16721086  0.16698834  0.16725385  1
  Ni  Ni2  1  0.99972751  1.00000470  0.33365501  1
  Ni  Ni3  1  1.00013308  0.33391183  0.00060041  1
  Ni  Ni4  1  0.16615795  0.49946241  0.16613619  1
  Ni  Ni5  1  0.99972751  0.33397198  0.33365501  1
  Ni  Ni6  1  0.00056699  0.66698834  0.00053631  1
  Ni  Ni7  1  0.16615795  0.83451428  0.16613619  1
  Ni  Ni8  1  0.99923986  0.66698834  0.33365501  1
  Ni  Ni9  1  0.33387731  0.99988315  0.00078917  1
  Ni  Ni10  1  0.50008121  0.16698834  0.16719655  1
  Ni  Ni11  1  0.33411619  0.00159412  0.33365501  1
  Ni  Ni12  1  0.33387731  0.33409354  0.00078917  1
  Ni  Ni13  1  0.50105952  0.49937461  0.16606328  1
  Ni  Ni14  1  0.33411619  0.33238256  0.33365501  1
  Ni  Ni15  1  0.33362993  0.66698834  1.00015764  1
  Ni  Ni16  1  0.50105952  0.83460207  0.16606328  1
  Cr  Cr17  1  0.33296612  0.66698834  0.33365501  1
  Ni  Ni18  1  0.66695366  1.00031433  0.00034946  1
  Ni  Ni19  1  0.83367424  0.16698834  0.16695479  1
  Ni  Ni20  1  0.66712825  0.00112408  0.33365501  1
  Ni  Ni21  1  0.66695366  0.33366236  0.00034946  1
  Ni  Ni22  1  0.83375650  0.50044485  0.16712948  1
  Ni  Ni23  1  0.66712825  0.33285261  0.33365501  1
  Ni  Ni24  1  0.66677263  0.66698834  0.00103191  1
  Ni  Ni25  1  0.83375650  0.83353183  0.16712948  1
  Fe  Fe26  1  0.66870169  0.66698834  0.33365501  1
  Ni  Ni27  1  0.16721086  0.16698834  0.50005616  1
  Ni  Ni28  1  1.00013308  1.00006485  0.66670961  1
  Ni  Ni29  1  0.16700576  0.16698834  0.83365501  1
  Ni  Ni30  1  0.16615795  0.49946241  0.50117382  1
  Ni  Ni31  1  1.00013308  0.33391183  0.66670961  1
  Ni  Ni32  1  0.16698719  0.50030741  0.83365501  1
  Ni  Ni33  1  0.16615795  0.83451428  0.50117382  1
  Ni  Ni34  1  0.00056699  0.66698834  0.66677371  1
  Ni  Ni35  1  0.16698719  0.83366927  0.83365501  1
  Ni  Ni36  1  0.50008121  0.16698834  0.50011346  1
  Ni  Ni37  1  0.33387731  0.99988315  0.66652084  1
  Ni  Ni38  1  0.50029120  0.16698834  0.83365501  1
  Ni  Ni39  1  0.50105952  0.49937461  0.50124673  1
  Ni  Ni40  1  0.33387731  0.33409354  0.66652084  1
  Ni  Ni41  1  0.50033910  0.50033676  0.83365501  1
  Ni  Ni42  1  0.50105952  0.83460207  0.50124673  1
  Ni  Ni43  1  0.33362993  0.66698834  0.66715238  1
  Ni  Ni44  1  0.50033910  0.83363993  0.83365501  1
  Ni  Ni45  1  0.83367424  0.16698834  0.50035522  1
  Ni  Ni46  1  0.66695366  1.00031433  0.66696056  1
  Ni  Ni47  1  0.83366809  0.16698834  0.83365501  1
  Ni  Ni48  1  0.83375650  0.50044485  0.50018054  1
  Ni  Ni49  1  0.66695366  0.33366236  0.66696056  1
  Ni  Ni50  1  0.83363870  0.50035539  0.83365501  1
  Ni  Ni51  1  0.83375650  0.83353183  0.50018054  1
  Ni  Ni52  1  0.66677263  0.66698834  0.66627811  1
  Ni  Ni53  1  0.83363870  0.83362129  0.83365501  1
" 