6234,Ni96Fe3Cr0_17,-239.048534228574, 177.61566466005,Ni96Fe3Cr0,"# generated using pymatgen
 data_Cr2FeNi51
_symmetry_space_group_name_H-M   'P 1'
_cell_length_a   7.46097021
_cell_length_b   7.46097021
_cell_length_c   10.55140526
_cell_angle_alpha   90.00000000
_cell_angle_beta   90.00000000
_cell_angle_gamma   90.00000000
_symmetry_Int_Tables_number   1
_chemical_formula_structural   Cr2FeNi51
_chemical_formula_sum   'Cr2 Fe1 Ni51'
_cell_volume   587.35533234
_cell_formula_units_Z   1
loop_
 _symmetry_equiv_pos_site_id
 _symmetry_equiv_pos_as_xyz
  1  'x, y, z'
loop_
 _atom_site_type_symbol
 _atom_site_label
 _atom_site_symmetry_multiplicity
 _atom_site_fract_x
 _atom_site_fract_y
 _atom_site_fract_z
 _atom_site_occupancy
  Ni  Ni0  1  1.00019337  1.00033305  0.00070171  1
  Ni  Ni1  1  0.16721384  0.16693405  0.16734410  1
  Ni  Ni2  1  0.99992879  1.00000968  0.33393827  1
  Ni  Ni3  1  1.00034838  0.33379951  0.00069909  1
  Ni  Ni4  1  0.16702072  0.50047930  0.16703361  1
  Ni  Ni5  1  0.00101475  0.33313314  0.33285802  1
  Ni  Ni6  1  0.00209475  0.66708748  1.00037566  1
  Ni  Ni7  1  0.16718080  0.83380785  0.16680466  1
  Ni  Ni8  1  0.00222321  0.66809398  0.33262720  1
  Ni  Ni9  1  0.33381748  1.00033041  0.00070412  1
  Ni  Ni10  1  0.50034004  0.16696709  0.16680466  1
  Ni  Ni11  1  0.33411810  1.00002979  0.33370389  1
  Ni  Ni12  1  0.33381484  0.33395452  0.00070171  1
  Ni  Ni13  1  0.49937757  0.49934714  0.16815485  1
  Ni  Ni14  1  0.33413822  0.33421910  0.33393827  1
  Ni  Ni15  1  0.33205391  0.66693588  1.00036306  1
  Ni  Ni16  1  0.49920879  0.83493911  0.16792862  1
  Ni  Ni17  1  0.33298598  0.66698905  0.33371155  1
  Ni  Ni18  1  0.66721201  0.00209398  1.00036306  1
  Ni  Ni19  1  0.83366859  0.16712718  0.16703361  1
  Ni  Ni20  1  0.66715884  0.00116191  0.33371155  1
  Ni  Ni21  1  0.66706041  0.33205314  1.00037566  1
  Ni  Ni22  1  0.83480836  0.49933953  0.16772268  1
  Ni  Ni23  1  0.66605391  0.33192468  0.33262720  1
  Cr  Cr24  1  0.66707775  0.66707015  0.00081292  1
  Ni  Ni25  1  0.83480075  0.83477032  0.16815485  1
  Fe  Fe26  1  0.66612512  0.66802277  0.33325734  1
  Ni  Ni27  1  0.16724940  0.16689849  0.50017761  1
  Ni  Ni28  1  1.00020857  1.00029836  0.66658344  1
  Ni  Ni29  1  0.16721449  0.16693340  0.83370298  1
  Ni  Ni30  1  0.16862236  0.50054279  0.50046537  1
  Ni  Ni31  1  0.00134666  0.33280123  0.66769054  1
  Ni  Ni32  1  0.16703716  0.50038241  0.83370644  1
  Ni  Ni33  1  0.16721584  0.83378808  0.50047216  1
  Ni  Ni34  1  0.00143245  0.66810788  0.66820555  1
  Ni  Ni35  1  0.16721155  0.83390229  0.83393654  1
  Ni  Ni36  1  0.50035981  0.16693205  0.50047216  1
  Ni  Ni37  1  0.33384902  1.00029887  0.66681938  1
  Ni  Ni38  1  0.50024560  0.16693634  0.83393654  1
  Ni  Ni39  1  0.49866687  0.50027270  0.50047996  1
  Ni  Ni40  1  0.33384953  0.33393932  0.66658344  1
  Ni  Ni41  1  0.49951546  0.49948072  0.83259515  1
  Ni  Ni42  1  0.50011027  0.83403762  0.50046229  1
  Ni  Ni43  1  0.33370528  0.66698702  0.66714327  1
  Ni  Ni44  1  0.49934071  0.83480718  0.83282790  1
  Ni  Ni45  1  0.83360510  0.16552553  0.50046537  1
  Ni  Ni46  1  0.66716087  0.00044261  0.66714327  1
  Ni  Ni47  1  0.83376548  0.16711073  0.83370644  1
  Cr  Cr48  1  0.83394142  0.50020647  0.50056822  1
  Ni  Ni49  1  0.66604002  0.33271544  0.66820555  1
  Ni  Ni50  1  0.83466614  0.49948175  0.83301844  1
  Ni  Ni51  1  0.83387519  0.83548102  0.50047996  1
  Ni  Ni52  1  0.66605132  0.66809658  0.66709807  1
  Ni  Ni53  1  0.83466718  0.83463243  0.83259515  1
" 