5110,Ni96Fe2Cr1_5,-239.842908793051, 180.359577982889,Ni96Fe2Cr1,"# generated using pymatgen
 data_CrFeNi52
_symmetry_space_group_name_H-M   'P 1'
_cell_length_a   7.46224677
_cell_length_b   7.46224677
_cell_length_c   10.55321059
_cell_angle_alpha   90.00000000
_cell_angle_beta   90.00000000
_cell_angle_gamma   90.00000000
_symmetry_Int_Tables_number   1
_chemical_formula_structural   CrFeNi52
_chemical_formula_sum   'Cr1 Fe1 Ni52'
_cell_volume   587.65687005
_cell_formula_units_Z   1
loop_
 _symmetry_equiv_pos_site_id
 _symmetry_equiv_pos_as_xyz
  1  'x, y, z'
loop_
 _atom_site_type_symbol
 _atom_site_label
 _atom_site_symmetry_multiplicity
 _atom_site_fract_x
 _atom_site_fract_y
 _atom_site_fract_z
 _atom_site_occupancy
  Ni  Ni0  1  1.00032052  1.00030741  0.00032168  1
  Ni  Ni1  1  0.16696326  0.16698834  0.16682430  1
  Ni  Ni2  1  0.99949129  0.99946241  0.33280286  1
  Ni  Ni3  1  1.00032052  0.33366927  0.00032168  1
  Ni  Ni4  1  0.16721065  0.49988315  0.16745584  1
  Ni  Ni5  1  0.99949129  0.33451428  0.33280286  1
  Ni  Ni6  1  0.00033910  0.66698834  0.00032168  1
  Ni  Ni7  1  0.16721065  0.83409354  0.16745584  1
  Ni  Ni8  1  0.00054420  0.66698834  0.33392052  1
  Ni  Ni9  1  0.33367243  0.00033676  0.00032168  1
  Ni  Ni10  1  0.50010597  0.16698834  0.16769858  1
  Ni  Ni11  1  0.33439286  0.99937461  0.33272995  1
  Ni  Ni12  1  0.33367243  0.33363993  0.00032168  1
  Ni  Ni13  1  0.50028700  0.50031433  0.16701612  1
  Ni  Ni14  1  0.33439286  0.33460207  0.33272995  1
  Ni  Ni15  1  0.33362453  0.66698834  0.00032168  1
  Ni  Ni16  1  0.50028700  0.83366236  0.16701612  1
  Ni  Ni17  1  0.33341454  0.66698834  0.33386322  1
  Ni  Ni18  1  0.66697204  0.00035539  0.00032168  1
  Ni  Ni19  1  0.83390033  0.16698834  0.16720298  1
  Ni  Ni20  1  0.66708983  0.00044485  0.33379615  1
  Ni  Ni21  1  0.66697204  0.33362129  0.00032168  1
  Ni  Ni22  1  0.83346641  0.50006485  0.16726707  1
  Ni  Ni23  1  0.66708983  0.33353183  0.33379615  1
  Ni  Ni24  1  0.66700142  0.66698834  0.00032168  1
  Ni  Ni25  1  0.83346641  0.83391183  0.16726707  1
  Ni  Ni26  1  0.66700758  0.66698834  0.33362146  1
  Cr  Cr27  1  0.16629945  0.16698834  0.50032168  1
  Ni  Ni28  1  0.99949129  0.99946241  0.66784049  1
  Ni  Ni29  1  0.16696326  0.16698834  0.83381905  1
  Ni  Ni30  1  0.16744953  0.50159412  0.50032168  1
  Ni  Ni31  1  0.99949129  0.33451428  0.66784049  1
  Ni  Ni32  1  0.16721065  0.49988315  0.83318751  1
  Ni  Ni33  1  0.16744953  0.83238256  0.50032168  1
  Ni  Ni34  1  0.00054420  0.66698834  0.66672283  1
  Ni  Ni35  1  0.16721065  0.83409354  0.83318751  1
  Fe  Fe36  1  0.50203503  0.16698834  0.50032168  1
  Ni  Ni37  1  0.33439286  0.99937461  0.66791340  1
  Ni  Ni38  1  0.50010597  0.16698834  0.83294477  1
  Ni  Ni39  1  0.50046158  0.50112408  0.50032168  1
  Ni  Ni40  1  0.33439286  0.33460207  0.66791340  1
  Ni  Ni41  1  0.50028700  0.50031433  0.83362723  1
  Ni  Ni42  1  0.50046158  0.83285261  0.50032168  1
  Ni  Ni43  1  0.33341454  0.66698834  0.66678013  1
  Ni  Ni44  1  0.50028700  0.83366236  0.83362723  1
  Ni  Ni45  1  0.83257319  0.16698834  0.50032168  1
  Ni  Ni46  1  0.66708983  0.00044485  0.66684720  1
  Ni  Ni47  1  0.83390033  0.16698834  0.83344037  1
  Ni  Ni48  1  0.83306084  0.50000470  0.50032168  1
  Ni  Ni49  1  0.66708983  0.33353183  0.66684720  1
  Ni  Ni50  1  0.83346641  0.50006485  0.83337628  1
  Ni  Ni51  1  0.83306084  0.83397198  0.50032168  1
  Ni  Ni52  1  0.66700758  0.66698834  0.66702189  1
  Ni  Ni53  1  0.83346641  0.83391183  0.83337628  1
" 