1473,Ni96Fe2Cr1_11,-239.847297676095, 180.309610297804,Ni96Fe2Cr1,"# generated using pymatgen
 data_CrFeNi52
_symmetry_space_group_name_H-M   'P 1'
_cell_length_a   7.46078278
_cell_length_b   7.46078278
_cell_length_c   10.55114020
_cell_angle_alpha   90.00000000
_cell_angle_beta   90.00000000
_cell_angle_gamma   90.00000000
_symmetry_Int_Tables_number   1
_chemical_formula_structural   CrFeNi52
_chemical_formula_sum   'Cr1 Fe1 Ni52'
_cell_volume   587.31106876
_cell_formula_units_Z   1
loop_
 _symmetry_equiv_pos_site_id
 _symmetry_equiv_pos_as_xyz
  1  'x, y, z'
loop_
 _atom_site_type_symbol
 _atom_site_label
 _atom_site_symmetry_multiplicity
 _atom_site_fract_x
 _atom_site_fract_y
 _atom_site_fract_z
 _atom_site_occupancy
  Ni  Ni0  1  0.00080004  1.00003966  1.00014968  1
  Ni  Ni1  1  0.16697554  0.16722602  0.16708652  1
  Ni  Ni2  1  0.00080004  1.00003966  0.33402336  1
  Ni  Ni3  1  0.00063597  0.33399297  0.99992764  1
  Ni  Ni4  1  0.16720863  0.50040229  0.16708652  1
  Ni  Ni5  1  0.00063597  0.33399297  0.33424540  1
  Ni  Ni6  1  0.00049498  0.66722793  0.00048126  1
  Ni  Ni7  1  0.16720842  0.83363128  0.16708652  1
  Ni  Ni8  1  0.00049498  0.66722793  0.33369178  1
  Ni  Ni9  1  0.33361177  1.00034472  0.00048126  1
  Ni  Ni10  1  0.50051653  0.16707210  0.16708652  1
  Ni  Ni11  1  0.33361177  1.00034472  0.33369178  1
  Ni  Ni12  1  0.33377588  0.33368738  1.00025846  1
  Ni  Ni13  1  0.50028353  0.50055617  0.16708652  1
  Ni  Ni14  1  0.33377588  0.33368738  0.33391457  1
  Ni  Ni15  1  0.33360697  0.66723273  0.99981310  1
  Ni  Ni16  1  0.50043741  0.83363107  0.16708652  1
  Ni  Ni17  1  0.33360697  0.66723273  0.33435993  1
  Ni  Ni18  1  0.66684673  1.00020373  0.99992764  1
  Ni  Ni19  1  0.83376750  0.16707220  0.16708652  1
  Ni  Ni20  1  0.66684673  1.00020373  0.33424540  1
  Ni  Ni21  1  0.66684893  0.33399077  1.00034424  1
  Ni  Ni22  1  0.83376760  0.50032317  0.16708652  1
  Ni  Ni23  1  0.66684893  0.33399077  0.33382879  1
  Ni  Ni24  1  0.66715232  0.66706382  1.00025846  1
  Ni  Ni25  1  0.83361368  0.83386416  0.16708652  1
  Ni  Ni26  1  0.66715232  0.66706382  0.33391457  1
  Ni  Ni27  1  0.16707270  0.16716508  0.50052121  1
  Ni  Ni28  1  0.00111289  0.99972681  0.66708652  1
  Ni  Ni29  1  0.16707270  0.16716508  0.83365183  1
  Ni  Ni30  1  0.16700508  0.50026005  0.50055957  1
  Ni  Ni31  1  0.00253845  0.33426444  0.66708652  1
  Ni  Ni32  1  0.16700508  0.50026005  0.83361347  1
  Ni  Ni33  1  0.16698658  0.83385313  0.50031023  1
  Ni  Ni34  1  0.99978886  0.66725041  0.66708652  1
  Ni  Ni35  1  0.16698658  0.83385313  0.83386280  1
  Ni  Ni36  1  0.49942496  0.16611728  0.49947684  1
  Ni  Ni37  1  0.33358929  0.00105085  0.66708652  1
  Ni  Ni38  1  0.49942496  0.16611728  0.83469620  1
  Ni  Ni39  1  0.49950633  0.50133337  0.49954648  1
  Ni  Ni40  1  0.33223370  0.33301382  0.66708652  1
  Ni  Ni41  1  0.49950633  0.50133337  0.83462655  1
  Ni  Ni42  1  0.50057965  0.83383462  0.50055957  1
  Fe  Fe43  1  0.33338154  0.66745816  0.66708652  1
  Ni  Ni44  1  0.50057965  0.83383462  0.83361347  1
  Ni  Ni45  1  0.83478188  0.16605782  0.49974514  1
  Ni  Ni46  1  0.66657526  0.99830125  0.66708652  1
  Ni  Ni47  1  0.83478188  0.16605782  0.83442790  1
  Ni  Ni48  1  0.83472242  0.50141474  0.49947684  1
  Cr  Cr49  1  0.66679158  0.33404812  0.66708652  1
  Ni  Ni50  1  0.83472242  0.50141474  0.83469620  1
  Ni  Ni51  1  0.83367462  0.83376700  0.50052121  1
  Ni  Ni52  1  0.66782588  0.66860600  0.66708652  1
  Ni  Ni53  1  0.83367462  0.83376700  0.83365183  1
" 