2146,Ni96Fe2Cr1_17,-239.841623209367, 180.327182201287,Ni96Fe2Cr1,"# generated using pymatgen
 data_CrFeNi52
_symmetry_space_group_name_H-M   'P 1'
_cell_length_a   7.46083309
_cell_length_b   7.46083309
_cell_length_c   10.55121135
_cell_angle_alpha   90.00000000
_cell_angle_beta   90.00000000
_cell_angle_gamma   90.00000000
_symmetry_Int_Tables_number   1
_chemical_formula_structural   CrFeNi52
_chemical_formula_sum   'Cr1 Fe1 Ni52'
_cell_volume   587.32294967
_cell_formula_units_Z   1
loop_
 _symmetry_equiv_pos_site_id
 _symmetry_equiv_pos_as_xyz
  1  'x, y, z'
loop_
 _atom_site_type_symbol
 _atom_site_label
 _atom_site_symmetry_multiplicity
 _atom_site_fract_x
 _atom_site_fract_y
 _atom_site_fract_z
 _atom_site_occupancy
  Ni  Ni0  1  0.00041648  1.00040409  1.00040550  1
  Ni  Ni1  1  0.16611826  0.16692366  0.16710384  1
  Ni  Ni2  1  0.00041648  1.00040728  0.33382166  1
  Ni  Ni3  1  0.00041648  0.33382469  1.00017491  1
  Ni  Ni4  1  0.16762697  0.49987435  0.16687771  1
  Ni  Ni5  1  0.00041648  0.33391800  0.33382328  1
  Ni  Ni6  1  0.00041648  0.66701737  0.00050506  1
  Ni  Ni7  1  0.16746818  0.83446171  0.16710843  1
  Ni  Ni8  1  1.00041648  0.66692511  0.33349025  1
  Ni  Ni9  1  0.33374342  1.00033234  1.00022952  1
  Fe  Fe10  1  0.50041648  0.16689373  0.16718163  1
  Ni  Ni11  1  0.33378414  1.00029310  0.33381895  1
  Ni  Ni12  1  0.33270018  0.33276202  0.00131754  1
  Ni  Ni13  1  0.50041648  0.50116684  0.16731770  1
  Ni  Ni14  1  0.33363673  0.33383012  0.33379189  1
  Ni  Ni15  1  0.33268712  0.66809978  0.00124221  1
  Ni  Ni16  1  0.50041648  0.83287241  0.16687250  1
  Ni  Ni17  1  0.33372335  0.66710604  0.33382240  1
  Ni  Ni18  1  0.66708954  1.00033234  1.00022952  1
  Ni  Ni19  1  0.83471469  0.16692366  0.16710384  1
  Ni  Ni20  1  0.66704882  1.00029310  0.33381895  1
  Ni  Ni21  1  0.66813278  0.33276202  0.00131754  1
  Ni  Ni22  1  0.83320598  0.49987435  0.16687771  1
  Ni  Ni23  1  0.66719622  0.33383012  0.33379189  1
  Ni  Ni24  1  0.66814583  0.66809978  0.00124221  1
  Ni  Ni25  1  0.83336477  0.83446171  0.16710843  1
  Ni  Ni26  1  0.66710960  0.66710604  0.33382240  1
  Ni  Ni27  1  0.16685039  0.16691718  0.50043104  1
  Ni  Ni28  1  1.00041648  1.00029121  0.66701891  1
  Ni  Ni29  1  0.16682799  0.16689986  0.83370302  1
  Ni  Ni30  1  0.16733826  0.50016837  0.50032407  1
  Ni  Ni31  1  0.00041648  0.33394450  0.66725513  1
  Ni  Ni32  1  0.16572954  0.50016655  0.83405354  1
  Ni  Ni33  1  0.16716536  0.83416480  0.50008689  1
  Ni  Ni34  1  1.00041648  0.66701302  0.66725810  1
  Ni  Ni35  1  0.16715375  0.83417910  0.83405312  1
  Ni  Ni36  1  0.50041648  0.16708228  0.49994623  1
  Ni  Ni37  1  0.33395727  0.00054462  0.66725748  1
  Ni  Ni38  1  0.50041648  0.16553568  0.83441776  1
  Ni  Ni39  1  0.50041648  0.50048814  0.50023707  1
  Ni  Ni40  1  0.33281880  0.33254256  0.66615541  1
  Cr  Cr41  1  0.50041648  0.50082063  0.83339648  1
  Ni  Ni42  1  0.50041648  0.83368020  0.50066496  1
  Ni  Ni43  1  0.33253026  0.66817558  0.66613033  1
  Ni  Ni44  1  0.50041648  0.83532103  0.83368783  1
  Ni  Ni45  1  0.83398257  0.16691718  0.50043104  1
  Ni  Ni46  1  0.66687568  0.00054462  0.66725748  1
  Ni  Ni47  1  0.83400496  0.16689986  0.83370302  1
  Ni  Ni48  1  0.83349469  0.50016837  0.50032407  1
  Ni  Ni49  1  0.66801415  0.33254256  0.66615541  1
  Ni  Ni50  1  0.83510341  0.50016655  0.83405354  1
  Ni  Ni51  1  0.83366759  0.83416480  0.50008689  1
  Ni  Ni52  1  0.66830269  0.66817558  0.66613033  1
  Ni  Ni53  1  0.83367920  0.83417910  0.83405312  1
" 