7201,Ni96Fe3Cr0_3,-239.048580682474, 178.222893281481,Ni96Fe3Cr0,"# generated using pymatgen
 data_Cr2FeNi51
_symmetry_space_group_name_H-M   'P 1'
_cell_length_a   7.46148887
_cell_length_b   7.46148887
_cell_length_c   10.55213875
_cell_angle_alpha   90.00000000
_cell_angle_beta   90.00000000
_cell_angle_gamma   90.00000000
_symmetry_Int_Tables_number   1
_chemical_formula_structural   Cr2FeNi51
_chemical_formula_sum   'Cr2 Fe1 Ni51'
_cell_volume   587.47783237
_cell_formula_units_Z   1
loop_
 _symmetry_equiv_pos_site_id
 _symmetry_equiv_pos_as_xyz
  1  'x, y, z'
loop_
 _atom_site_type_symbol
 _atom_site_label
 _atom_site_symmetry_multiplicity
 _atom_site_fract_x
 _atom_site_fract_y
 _atom_site_fract_z
 _atom_site_occupancy
  Ni  Ni0  1  0.00038741  0.00037250  0.00051155  1
  Ni  Ni1  1  0.16718070  0.16529310  0.16695434  1
  Ni  Ni2  1  0.00111614  0.00037250  0.33370372  1
  Ni  Ni3  1  0.99910762  0.33241128  0.99975884  1
  Cr  Cr4  1  0.16703694  0.50037250  0.16748370  1
  Ni  Ni5  1  0.99983203  0.33112550  0.33371608  1
  Ni  Ni6  1  0.99910762  0.66833371  0.99975884  1
  Ni  Ni7  1  0.16718070  0.83545189  0.16695434  1
  Ni  Ni8  1  0.99983203  0.66961949  0.33371608  1
  Ni  Ni9  1  0.33355563  0.00037250  0.00051303  1
  Ni  Ni10  1  0.50029547  0.16684683  0.16695750  1
  Ni  Ni11  1  0.33276718  0.00037250  0.33346720  1
  Ni  Ni12  1  0.33499038  0.33256175  0.99975316  1
  Ni  Ni13  1  0.50202965  0.50037250  0.16718066  1
  Ni  Ni14  1  0.33528454  0.33223289  0.33479057  1
  Ni  Ni15  1  0.33499038  0.66818324  0.99975316  1
  Ni  Ni16  1  0.50029547  0.83389816  0.16695750  1
  Ni  Ni17  1  0.33528454  0.66851210  0.33479057  1
  Ni  Ni18  1  0.66717779  0.00037250  0.00096176  1
  Ni  Ni19  1  0.83362803  0.16698986  0.16720219  1
  Fe  Fe20  1  0.66686712  0.00037250  0.33371601  1
  Ni  Ni21  1  0.66702869  0.33384369  0.00051282  1
  Ni  Ni22  1  0.83210372  0.50037250  0.16674200  1
  Ni  Ni23  1  0.66602721  0.33357624  0.33264920  1
  Ni  Ni24  1  0.66702869  0.66690130  0.00051282  1
  Ni  Ni25  1  0.83362803  0.83375513  0.16720219  1
  Ni  Ni26  1  0.66602721  0.66716875  0.33264920  1
  Ni  Ni27  1  0.16721104  0.16691716  0.50022961  1
  Ni  Ni28  1  0.00049383  0.00037250  0.66690669  1
  Ni  Ni29  1  0.16717801  0.16704174  0.83393222  1
  Ni  Ni30  1  0.16870631  0.50037250  0.50036407  1
  Ni  Ni31  1  0.00117530  0.33238022  0.66768577  1
  Ni  Ni32  1  0.16700162  0.50037250  0.83326290  1
  Ni  Ni33  1  0.16721104  0.83382784  0.50022961  1
  Ni  Ni34  1  0.00117530  0.66836477  0.66768577  1
  Ni  Ni35  1  0.16717801  0.83370325  0.83393222  1
  Ni  Ni36  1  0.50025608  0.16679492  0.50041470  1
  Ni  Ni37  1  0.33350201  0.00037250  0.66713757  1
  Ni  Ni38  1  0.50049248  0.16664641  0.83370571  1
  Ni  Ni39  1  0.49872608  0.50037250  0.50020896  1
  Ni  Ni40  1  0.33396094  0.33353446  0.66656233  1
  Ni  Ni41  1  0.50026485  0.50037250  0.83370363  1
  Ni  Ni42  1  0.50025608  0.83395007  0.50041470  1
  Ni  Ni43  1  0.33396094  0.66721054  0.66656233  1
  Ni  Ni44  1  0.50049248  0.83409858  0.83370571  1
  Ni  Ni45  1  0.83361272  0.16531356  0.50037690  1
  Ni  Ni46  1  0.66712820  0.00037250  0.66622009  1
  Ni  Ni47  1  0.83344901  0.16681678  0.83347715  1
  Cr  Cr48  1  0.83400209  0.50037250  0.50053066  1
  Ni  Ni49  1  0.66598945  0.33285591  0.66800185  1
  Ni  Ni50  1  0.83384879  0.50037250  0.83413871  1
  Ni  Ni51  1  0.83361272  0.83543144  0.50037690  1
  Ni  Ni52  1  0.66598945  0.66788908  0.66800185  1
  Ni  Ni53  1  0.83344901  0.83392821  0.83347715  1
" 