7948,Ni96Fe3Cr0_18,-239.069148621377, 178.347174184416,Ni96Fe3Cr0,"# generated using pymatgen
 data_Cr2FeNi51
_symmetry_space_group_name_H-M   'P 1'
_cell_length_a   7.46129646
_cell_length_b   7.46129646
_cell_length_c   10.55186665
_cell_angle_alpha   90.00000000
_cell_angle_beta   90.00000000
_cell_angle_gamma   90.00000000
_symmetry_Int_Tables_number   1
_chemical_formula_structural   Cr2FeNi51
_chemical_formula_sum   'Cr2 Fe1 Ni51'
_cell_volume   587.43238720
_cell_formula_units_Z   1
loop_
 _symmetry_equiv_pos_site_id
 _symmetry_equiv_pos_as_xyz
  1  'x, y, z'
loop_
 _atom_site_type_symbol
 _atom_site_label
 _atom_site_symmetry_multiplicity
 _atom_site_fract_x
 _atom_site_fract_y
 _atom_site_fract_z
 _atom_site_occupancy
  Ni  Ni0  1  0.99996412  1.00026215  0.00067101  1
  Ni  Ni1  1  0.16713071  0.16705207  0.16725860  1
  Ni  Ni2  1  0.99862029  0.99898562  0.33279005  1
  Ni  Ni3  1  0.99996412  0.33384198  0.00067101  1
  Ni  Ni4  1  0.16609004  0.49929157  0.16626883  1
  Ni  Ni5  1  0.99862029  0.33511851  0.33279005  1
  Ni  Ni6  1  0.00064174  0.66705207  0.00054603  1
  Ni  Ni7  1  0.16609004  0.83481256  0.16626883  1
  Ni  Ni8  1  0.99953337  0.66705207  0.33389980  1
  Ni  Ni9  1  0.33398655  1.00008955  0.00090621  1
  Ni  Ni10  1  0.50025983  0.16705207  0.16739040  1
  Ni  Ni11  1  0.33535525  0.00043857  0.33278857  1
  Ni  Ni12  1  0.33398655  0.33401458  0.00090621  1
  Ni  Ni13  1  0.50148914  0.49934315  0.16602956  1
  Ni  Ni14  1  0.33535525  0.33366556  0.33278857  1
  Ni  Ni15  1  0.33352461  0.66705207  1.00013024  1
  Ni  Ni16  1  0.50148914  0.83476098  0.16602956  1
  Cr  Cr17  1  0.33271457  0.66705207  0.33389400  1
  Ni  Ni18  1  0.66719581  0.00074186  1.00032636  1
  Ni  Ni19  1  0.83376912  0.16705207  0.16713234  1
  Ni  Ni20  1  0.66724662  0.00148568  0.33390345  1
  Ni  Ni21  1  0.66719581  0.33336227  1.00032636  1
  Ni  Ni22  1  0.83366338  0.50054747  0.16719267  1
  Ni  Ni23  1  0.66724662  0.33261845  0.33390345  1
  Ni  Ni24  1  0.66703015  0.66705207  0.00126178  1
  Ni  Ni25  1  0.83366338  0.83355667  0.16719267  1
  Fe  Fe26  1  0.66842432  0.66705207  0.33362823  1
  Cr  Cr27  1  0.16713872  0.16705207  0.49996703  1
  Ni  Ni28  1  0.99891246  0.99920570  0.66770095  1
  Ni  Ni29  1  0.16719739  0.16705207  0.83394837  1
  Ni  Ni30  1  0.16608955  0.50099629  0.50138764  1
  Ni  Ni31  1  0.99891246  0.33489843  0.66770095  1
  Ni  Ni32  1  0.16703713  0.50022816  0.83350427  1
  Ni  Ni33  1  0.16608955  0.83310784  0.50138764  1
  Ni  Ni34  1  0.00059110  0.66705207  0.66670489  1
  Ni  Ni35  1  0.16703713  0.83387597  0.83350427  1
  Ni  Ni36  1  0.50194487  0.16705207  0.50027939  1
  Ni  Ni37  1  0.33503122  0.99903965  0.66746473  1
  Ni  Ni38  1  0.50009812  0.16705207  0.83350369  1
  Ni  Ni39  1  0.50151944  0.49939586  0.50137668  1
  Ni  Ni40  1  0.33503122  0.33506448  0.66746473  1
  Ni  Ni41  1  0.50067544  0.50064357  0.83373728  1
  Ni  Ni42  1  0.50151944  0.83470827  0.50137668  1
  Ni  Ni43  1  0.33358572  0.66705207  0.66711968  1
  Ni  Ni44  1  0.50067544  0.83346056  0.83373728  1
  Ni  Ni45  1  0.83207239  0.16705207  0.50053106  1
  Ni  Ni46  1  0.66719302  0.00068776  0.66693418  1
  Ni  Ni47  1  0.83385911  0.16705207  0.83350581  1
  Ni  Ni48  1  0.83362052  0.50058248  0.50022061  1
  Ni  Ni49  1  0.66719302  0.33341637  0.66693418  1
  Ni  Ni50  1  0.83344504  0.50080431  0.83373618  1
  Ni  Ni51  1  0.83362052  0.83352165  0.50022061  1
  Ni  Ni52  1  0.66702558  0.66705207  0.66623176  1
  Ni  Ni53  1  0.83344504  0.83329982  0.83373618  1
" 