3577,Ni96Fe2Cr0_12,-239.851181364697, 180.286105674411,Ni96Fe2Cr0,"# generated using pymatgen
 data_CrFeNi52
_symmetry_space_group_name_H-M   'P 1'
_cell_length_a   7.46066161
_cell_length_b   7.46066161
_cell_length_c   10.55096883
_cell_angle_alpha   90.00000000
_cell_angle_beta   90.00000000
_cell_angle_gamma   90.00000000
_symmetry_Int_Tables_number   1
_chemical_formula_structural   CrFeNi52
_chemical_formula_sum   'Cr1 Fe1 Ni52'
_cell_volume   587.28245228
_cell_formula_units_Z   1
loop_
 _symmetry_equiv_pos_site_id
 _symmetry_equiv_pos_as_xyz
  1  'x, y, z'
loop_
 _atom_site_type_symbol
 _atom_site_label
 _atom_site_symmetry_multiplicity
 _atom_site_fract_x
 _atom_site_fract_y
 _atom_site_fract_z
 _atom_site_occupancy
  Ni  Ni0  1  0.00060343  1.00026173  1.00037951  1
  Ni  Ni1  1  0.16655180  0.16779450  0.16709464  1
  Ni  Ni2  1  0.00060343  1.00026173  0.33380978  1
  Ni  Ni3  1  0.00050861  0.33367547  1.00018792  1
  Ni  Ni4  1  0.16789865  0.50027119  0.16709464  1
  Ni  Ni5  1  0.00050861  0.33367547  0.33400137  1
  Ni  Ni6  1  0.00067577  0.66734244  1.00042290  1
  Ni  Ni7  1  0.16655141  0.83321808  0.16709464  1
  Ni  Ni8  1  0.00067577  0.66734244  0.33376639  1
  Ni  Ni9  1  0.33359708  1.00026374  0.00071096  1
  Ni  Ni10  1  0.50095505  0.16762172  0.16709464  1
  Ni  Ni11  1  0.33359708  1.00026374  0.33347833  1
  Ni  Ni12  1  0.33375549  0.33375215  1.00014819  1
  Ni  Ni13  1  0.49960800  0.50044348  0.16709464  1
  Ni  Ni14  1  0.33375549  0.33375215  0.33404110  1
  Ni  Ni15  1  0.33359506  0.66727010  1.00037951  1
  Ni  Ni16  1  0.50112783  0.83321847  0.16709464  1
  Ni  Ni17  1  0.33359506  0.66727010  0.33380978  1
  Ni  Ni18  1  0.66708548  1.00042216  1.00014819  1
  Ni  Ni19  1  0.83377682  0.16627467  0.16709464  1
  Ni  Ni20  1  0.66708548  1.00042216  0.33404110  1
  Ni  Ni21  1  0.66701420  0.33368087  0.00062668  1
  Fe  Fe22  1  0.83381953  0.50048620  0.16709464  1
  Ni  Ni23  1  0.66701420  0.33368087  0.33356261  1
  Ni  Ni24  1  0.66700881  0.66717527  1.00018792  1
  Ni  Ni25  1  0.83360452  0.83456532  0.16709464  1
  Ni  Ni26  1  0.66700881  0.66717527  0.33400137  1
  Ni  Ni27  1  0.16684084  0.16740941  0.50029621  1
  Ni  Ni28  1  0.00073270  1.00024832  0.66709464  1
  Ni  Ni29  1  0.16684084  0.16740941  0.83389308  1
  Ni  Ni30  1  0.16716017  0.50036079  0.50063996  1
  Ni  Ni31  1  0.00188964  0.33389583  0.66709464  1
  Ni  Ni32  1  0.16716017  0.50036079  0.83354933  1
  Ni  Ni33  1  0.16684559  0.83351225  0.50006214  1
  Ni  Ni34  1  0.00047162  0.66713829  0.66709464  1
  Ni  Ni35  1  0.16684559  0.83351225  0.83412715  1
  Ni  Ni36  1  0.49962731  0.16629398  0.49921464  1
  Ni  Ni37  1  0.33358099  1.00024765  0.66709464  1
  Ni  Ni38  1  0.49962731  0.16629398  0.83497465  1
  Ni  Ni39  1  0.49929957  0.50147835  0.49956718  1
  Ni  Ni40  1  0.33216597  0.33363696  0.66709464  1
  Ni  Ni41  1  0.49929957  0.50147835  0.83462211  1
  Ni  Ni42  1  0.50074274  0.83350751  0.50029621  1
  Ni  Ni43  1  0.33358165  0.66739936  0.66709464  1
  Ni  Ni44  1  0.50074274  0.83350751  0.83389308  1
  Ni  Ni45  1  0.83481168  0.16596623  0.49956718  1
  Ni  Ni46  1  0.66697029  0.99883264  0.66709464  1
  Ni  Ni47  1  0.83481168  0.16596623  0.83462211  1
  Ni  Ni48  1  0.83481273  0.50147939  0.49886372  1
  Cr  Cr49  1  0.66723782  0.33390449  0.66709464  1
  Ni  Ni50  1  0.83481273  0.50147939  0.83532557  1
  Ni  Ni51  1  0.83369412  0.83382684  0.50063996  1
  Ni  Ni52  1  0.66722916  0.66855631  0.66709464  1
  Ni  Ni53  1  0.83369412  0.83382684  0.83354933  1
" 