7761,Ni96Fe2Cr0_0,-239.852729207771, 180.418995677155,Ni96Fe2Cr0,"# generated using pymatgen
 data_CrFeNi52
_symmetry_space_group_name_H-M   'P 1'
_cell_length_a   7.46072985
_cell_length_b   7.46072985
_cell_length_c   10.55106534
_cell_angle_alpha   90.00000000
_cell_angle_beta   90.00000000
_cell_angle_gamma   90.00000000
_symmetry_Int_Tables_number   1
_chemical_formula_structural   CrFeNi52
_chemical_formula_sum   'Cr1 Fe1 Ni52'
_cell_volume   587.29856742
_cell_formula_units_Z   1
loop_
 _symmetry_equiv_pos_site_id
 _symmetry_equiv_pos_as_xyz
  1  'x, y, z'
loop_
 _atom_site_type_symbol
 _atom_site_label
 _atom_site_symmetry_multiplicity
 _atom_site_fract_x
 _atom_site_fract_y
 _atom_site_fract_z
 _atom_site_occupancy
  Ni  Ni0  1  0.00042340  0.00056548  0.00063582  1
  Ni  Ni1  1  0.16837365  0.16580649  0.16647876  1
  Ni  Ni2  1  0.00042340  0.99881544  0.33368026  1
  Ni  Ni3  1  0.00042340  0.33375673  1.00020202  1
  Ni  Ni4  1  0.16837365  0.50170698  0.16647876  1
  Cr  Cr5  1  1.00042340  0.33375673  0.33398487  1
  Ni  Ni6  1  0.00042340  0.66694798  0.00063582  1
  Ni  Ni7  1  0.16693548  0.83375673  0.16722589  1
  Ni  Ni8  1  0.00042340  0.66869803  0.33368026  1
  Ni  Ni9  1  0.33402147  1.00015866  1.00040659  1
  Ni  Ni10  1  0.50042340  0.16724466  0.16722589  1
  Ni  Ni11  1  0.33384685  1.00033329  0.33372140  1
  Ni  Ni12  1  0.33361465  0.33375673  0.00063582  1
  Ni  Ni13  1  0.50042340  0.50026881  0.16722589  1
  Ni  Ni14  1  0.33536469  0.33375673  0.33368026  1
  Ni  Ni15  1  0.33402147  0.66735481  1.00040659  1
  Ni  Ni16  1  0.50042340  0.83375673  0.16767896  1
  Ni  Ni17  1  0.33384685  0.66718018  0.33372140  1
  Ni  Ni18  1  0.66682533  1.00015866  1.00040659  1
  Ni  Ni19  1  0.83247315  0.16580649  0.16647876  1
  Ni  Ni20  1  0.66699995  1.00033329  0.33372140  1
  Ni  Ni21  1  0.66723215  0.33375673  0.00063582  1
  Ni  Ni22  1  0.83247315  0.50170698  0.16647876  1
  Ni  Ni23  1  0.66548211  0.33375673  0.33368026  1
  Ni  Ni24  1  0.66682533  0.66735481  1.00040659  1
  Ni  Ni25  1  0.83391132  0.83375673  0.16722589  1
  Ni  Ni26  1  0.66699995  0.66718018  0.33372140  1
  Ni  Ni27  1  0.16865577  0.16552437  0.50133275  1
  Ni  Ni28  1  0.00042340  0.00046751  0.66694665  1
  Ni  Ni29  1  0.16735206  0.16682807  0.83346098  1
  Ni  Ni30  1  0.16865577  0.50198910  0.50133275  1
  Ni  Ni31  1  0.00042340  0.33375673  0.66707758  1
  Ni  Ni32  1  0.16735206  0.50068540  0.83346098  1
  Ni  Ni33  1  0.16619724  0.83375673  0.50024189  1
  Ni  Ni34  1  0.00042340  0.66704596  0.66694665  1
  Ni  Ni35  1  0.16688332  0.83375673  0.83379887  1
  Ni  Ni36  1  0.50042340  0.16798290  0.50024189  1
  Ni  Ni37  1  0.33381124  1.00036890  0.66714521  1
  Ni  Ni38  1  0.50042340  0.16729682  0.83379887  1
  Ni  Ni39  1  0.50042340  0.49953057  0.50024189  1
  Ni  Ni40  1  0.33371263  0.33375673  0.66694665  1
  Ni  Ni41  1  0.50042340  0.50021665  0.83379887  1
  Fe  Fe42  1  0.50042340  0.83375673  0.50051015  1
  Ni  Ni43  1  0.33381124  0.66714457  0.66714521  1
  Ni  Ni44  1  0.50042340  0.83375673  0.83310974  1
  Ni  Ni45  1  0.83219103  0.16552437  0.50133275  1
  Ni  Ni46  1  0.66703556  1.00036890  0.66714521  1
  Ni  Ni47  1  0.83349474  0.16682807  0.83346098  1
  Ni  Ni48  1  0.83219103  0.50198910  0.50133275  1
  Ni  Ni49  1  0.66713418  0.33375673  0.66694665  1
  Ni  Ni50  1  0.83349474  0.50068540  0.83346098  1
  Ni  Ni51  1  0.83464956  0.83375673  0.50024189  1
  Ni  Ni52  1  0.66703556  0.66714457  0.66714521  1
  Ni  Ni53  1  0.83396348  0.83375673  0.83379887  1
" 