3488,Ni96Fe2Cr1_3,-239.852743372738, 180.417088247265,Ni96Fe2Cr1,"# generated using pymatgen
 data_CrFeNi52
_symmetry_space_group_name_H-M   'P 1'
_cell_length_a   7.46235066
_cell_length_b   7.46235066
_cell_length_c   10.55335750
_cell_angle_alpha   90.00000000
_cell_angle_beta   90.00000000
_cell_angle_gamma   90.00000000
_symmetry_Int_Tables_number   1
_chemical_formula_structural   CrFeNi52
_chemical_formula_sum   'Cr1 Fe1 Ni52'
_cell_volume   587.68141379
_cell_formula_units_Z   1
loop_
 _symmetry_equiv_pos_site_id
 _symmetry_equiv_pos_as_xyz
  1  'x, y, z'
loop_
 _atom_site_type_symbol
 _atom_site_label
 _atom_site_symmetry_multiplicity
 _atom_site_fract_x
 _atom_site_fract_y
 _atom_site_fract_z
 _atom_site_occupancy
  Ni  Ni0  1  0.99948025  0.00114917  0.00065445  1
  Ni  Ni1  1  0.16696089  0.16675650  0.16674855  1
  Ni  Ni2  1  1.00031279  0.00031663  0.33411622  1
  Ni  Ni3  1  0.00052808  0.33367682  1.00010905  1
  Ni  Ni4  1  0.16699837  0.50051946  0.16674794  1
  Ni  Ni5  1  0.00033697  0.33367955  0.33362228  1
  Ni  Ni6  1  0.99947861  0.66612346  0.00114719  1
  Ni  Ni7  1  0.16696097  0.83366845  0.16712568  1
  Ni  Ni8  1  1.00031307  0.66695036  0.33362438  1
  Ni  Ni9  1  0.33450596  0.00115081  0.00114719  1
  Ni  Ni10  1  0.50028835  0.16697194  0.16693536  1
  Ni  Ni11  1  0.33367906  0.00031635  0.33362438  1
  Ni  Ni12  1  0.33321514  0.33342885  0.99985913  1
  Ni  Ni13  1  0.50028854  0.50034088  0.16693553  1
  Ni  Ni14  1  0.33340594  0.33342841  0.33387584  1
  Ni  Ni15  1  0.33426676  0.66636266  0.00090546  1
  Ni  Ni16  1  0.50010996  0.83363105  0.16674794  1
  Ni  Ni17  1  0.33343020  0.66719922  0.33387543  1
  Ni  Ni18  1  0.66695260  1.00010134  1.00010905  1
  Ni  Ni19  1  0.83369503  0.16693439  0.16693547  1
  Ni  Ni20  1  0.66694987  1.00029245  0.33362228  1
  Ni  Ni21  1  0.66720070  0.33342872  1.00009513  1
  Ni  Ni22  1  0.83365748  0.50034107  0.16693536  1
  Ni  Ni23  1  0.66720138  0.33342804  0.33387620  1
  Ni  Ni24  1  0.66720057  0.66741428  0.99985913  1
  Ni  Ni25  1  0.83387292  0.83366853  0.16674855  1
  Ni  Ni26  1  0.66720101  0.66722348  0.33387584  1
  Ni  Ni27  1  0.16707950  0.16687570  0.50045722  1
  Fe  Fe28  1  0.99943574  0.00119368  0.66611671  1
  Ni  Ni29  1  0.16708351  0.16877792  0.83374207  1
  Ni  Ni30  1  0.16700009  0.50052214  0.50051871  1
  Ni  Ni31  1  0.00052775  0.33430515  0.66720902  1
  Ni  Ni32  1  0.16699740  0.49862928  0.83367429  1
  Ni  Ni33  1  0.16708052  0.83354890  0.50007899  1
  Ni  Ni34  1  0.99948085  0.66548346  0.66616729  1
  Cr  Cr35  1  0.16715285  0.83347657  0.83381200  1
  Ni  Ni36  1  0.50028339  0.16697407  0.50033147  1
  Ni  Ni37  1  0.33514596  0.00114857  0.66616729  1
  Ni  Ni38  1  0.50044707  0.16713640  0.83367539  1
  Ni  Ni39  1  0.50028847  0.50034095  0.50039958  1
  Ni  Ni40  1  0.33298258  0.33319481  0.66720881  1
  Ni  Ni41  1  0.50045252  0.50017690  0.83360948  1
  Ni  Ni42  1  0.50010728  0.83362933  0.50051871  1
  Ni  Ni43  1  0.33402585  0.66660357  0.66616677  1
  Ni  Ni44  1  0.50200014  0.83363202  0.83367429  1
  Ni  Ni45  1  0.83357662  0.16705280  0.50027115  1
  Ni  Ni46  1  0.66632427  1.00010167  0.66720902  1
  Ni  Ni47  1  0.83341070  0.16721872  0.83373905  1
  Ni  Ni48  1  0.83365535  0.50034603  0.50033147  1
  Ni  Ni49  1  0.66743161  0.33319781  0.66697307  1
  Ni  Ni50  1  0.83349302  0.50018235  0.83367539  1
  Ni  Ni51  1  0.83375372  0.83354992  0.50045722  1
  Ni  Ni52  1  0.66743461  0.66764684  0.66720881  1
  Ni  Ni53  1  0.83185150  0.83354591  0.83374207  1
" 