3868,Ni96Fe2Cr1_6,-239.833373914862, 180.475841236337,Ni96Fe2Cr1,"# generated using pymatgen
 data_CrFeNi52
_symmetry_space_group_name_H-M   'P 1'
_cell_length_a   7.46098754
_cell_length_b   7.46098754
_cell_length_c   10.55142977
_cell_angle_alpha   90.00000000
_cell_angle_beta   90.00000000
_cell_angle_gamma   90.00000000
_symmetry_Int_Tables_number   1
_chemical_formula_structural   CrFeNi52
_chemical_formula_sum   'Cr1 Fe1 Ni52'
_cell_volume   587.35942484
_cell_formula_units_Z   1
loop_
 _symmetry_equiv_pos_site_id
 _symmetry_equiv_pos_as_xyz
  1  'x, y, z'
loop_
 _atom_site_type_symbol
 _atom_site_label
 _atom_site_symmetry_multiplicity
 _atom_site_fract_x
 _atom_site_fract_y
 _atom_site_fract_z
 _atom_site_occupancy
  Ni  Ni0  1  0.00050007  1.00015955  0.00070514  1
  Ni  Ni1  1  0.16721935  0.16690636  0.16697886  1
  Ni  Ni2  1  0.00088395  0.99986022  0.33390794  1
  Ni  Ni3  1  0.00066977  0.33397054  0.00070596  1
  Ni  Ni4  1  0.16697529  0.50031419  0.16723557  1
  Ni  Ni5  1  0.00197949  0.33325090  0.33284268  1
  Ni  Ni6  1  1.00035675  0.66708876  1.00036536  1
  Ni  Ni7  1  0.16710791  0.83401430  0.16698517  1
  Ni  Ni8  1  0.00064389  0.66807910  0.33286661  1
  Ni  Ni9  1  0.33373945  0.00047008  1.00036671  1
  Ni  Ni10  1  0.50025955  0.16690636  0.16697886  1
  Ni  Ni11  1  0.33373945  0.00125674  0.33367712  1
  Ni  Ni12  1  0.33373945  0.33382478  1.00036405  1
  Ni  Ni13  1  0.50050361  0.50031419  0.16723557  1
  Ni  Ni14  1  0.33373945  0.33307542  0.33391099  1
  Ni  Ni15  1  0.33373945  0.66692075  0.00106860  1
  Ni  Ni16  1  0.50037099  0.83401430  0.16698517  1
  Fe  Fe17  1  0.33373945  0.66726893  0.33364967  1
  Ni  Ni18  1  0.66697883  1.00015955  0.00070514  1
  Ni  Ni19  1  0.83373945  0.16708016  0.16753201  1
  Ni  Ni20  1  0.66659495  0.99986022  0.33390794  1
  Ni  Ni21  1  0.66680913  0.33397054  0.00070596  1
  Ni  Ni22  1  0.83373945  0.50039539  0.16677225  1
  Ni  Ni23  1  0.66549941  0.33325090  0.33284268  1
  Ni  Ni24  1  0.66712215  0.66708876  1.00036536  1
  Ni  Ni25  1  0.83373945  0.83374901  0.16720009  1
  Ni  Ni26  1  0.66683501  0.66807910  0.33286661  1
  Ni  Ni27  1  0.16723610  0.16689428  0.50048083  1
  Ni  Ni28  1  0.00058102  1.00016076  0.66659757  1
  Ni  Ni29  1  0.16711207  0.16691148  0.83376617  1
  Ni  Ni30  1  0.16864311  0.50037442  0.50038370  1
  Ni  Ni31  1  0.00173417  0.33290687  0.66771667  1
  Ni  Ni32  1  0.16719267  0.50053921  0.83352719  1
  Ni  Ni33  1  0.16718698  0.83399041  0.50042281  1
  Ni  Ni34  1  0.00140047  0.66813105  0.66803406  1
  Ni  Ni35  1  0.16736556  0.83376538  0.83376344  1
  Ni  Ni36  1  0.50024280  0.16689428  0.50048083  1
  Ni  Ni37  1  0.33373945  0.00047564  0.66717989  1
  Ni  Ni38  1  0.50036683  0.16691148  0.83376617  1
  Ni  Ni39  1  0.49883579  0.50037442  0.50038370  1
  Ni  Ni40  1  0.33373945  0.33373467  0.66695180  1
  Ni  Ni41  1  0.50028624  0.50053921  0.83352719  1
  Ni  Ni42  1  0.50029192  0.83399041  0.50042281  1
  Ni  Ni43  1  0.33373945  0.66699997  0.66624526  1
  Ni  Ni44  1  0.50011334  0.83376538  0.83376344  1
  Ni  Ni45  1  0.83373945  0.16541988  0.50015234  1
  Ni  Ni46  1  0.66689788  1.00016076  0.66659757  1
  Ni  Ni47  1  0.83373945  0.16708770  0.83352591  1
  Cr  Cr48  1  0.83373945  0.50010665  0.50080071  1
  Ni  Ni49  1  0.66574473  0.33290687  0.66771667  1
  Ni  Ni50  1  0.83373945  0.50028419  0.83396170  1
  Ni  Ni51  1  0.83373945  0.83529585  0.50046997  1
  Ni  Ni52  1  0.66607844  0.66813105  0.66803406  1
  Ni  Ni53  1  0.83373945  0.83384896  0.83352978  1
" 