8050,Ni96Fe3Cr0_4,-239.049890909924, 177.837730683211,Ni96Fe3Cr0,"# generated using pymatgen
 data_Cr2FeNi51
_symmetry_space_group_name_H-M   'P 1'
_cell_length_a   7.46220576
_cell_length_b   7.46220576
_cell_length_c   10.55315259
_cell_angle_alpha   90.00000000
_cell_angle_beta   90.00000000
_cell_angle_gamma   90.00000000
_symmetry_Int_Tables_number   1
_chemical_formula_structural   Cr2FeNi51
_chemical_formula_sum   'Cr2 Fe1 Ni51'
_cell_volume   587.64718232
_cell_formula_units_Z   1
loop_
 _symmetry_equiv_pos_site_id
 _symmetry_equiv_pos_as_xyz
  1  'x, y, z'
loop_
 _atom_site_type_symbol
 _atom_site_label
 _atom_site_symmetry_multiplicity
 _atom_site_fract_x
 _atom_site_fract_y
 _atom_site_fract_z
 _atom_site_occupancy
  Ni  Ni0  1  1.00027098  0.00037787  1.00014836  1
  Ni  Ni1  1  0.16802093  0.16843284  0.16642423  1
  Cr  Cr2  1  1.00019109  0.00045776  0.33382024  1
  Ni  Ni3  1  0.00034902  0.33348193  0.00058479  1
  Ni  Ni4  1  0.16596125  0.49888268  0.16642423  1
  Ni  Ni5  1  1.00017595  0.33520877  0.33367990  1
  Ni  Ni6  1  0.00044744  0.66711411  0.00069676  1
  Fe  Fe7  1  0.16699109  0.83365776  0.16527403  1
  Ni  Ni8  1  0.99853199  0.66519866  0.33375469  1
  Ni  Ni9  1  0.33353474  1.00020141  0.00069676  1
  Ni  Ni10  1  0.49965945  0.16632612  0.16745159  1
  Ni  Ni11  1  0.33545019  0.00211686  0.33375469  1
  Ni  Ni12  1  0.33363316  0.33383359  0.00058479  1
  Ni  Ni13  1  0.50068832  0.49996053  0.16619204  1
  Ni  Ni14  1  0.33380623  0.33210675  0.33367990  1
  Ni  Ni15  1  0.33371120  0.66693765  1.00014836  1
  Ni  Ni16  1  0.50176617  0.83468760  0.16642423  1
  Cr  Cr17  1  0.33379109  0.66685776  0.33382024  1
  Ni  Ni18  1  0.66716692  1.00029983  0.00058479  1
  Ni  Ni19  1  0.83329387  0.16735498  0.16619204  1
  Ni  Ni20  1  0.66544008  0.00047290  0.33367990  1
  Ni  Ni21  1  0.66699109  0.33365776  0.00044740  1
  Ni  Ni22  1  0.83432273  0.50098940  0.16745159  1
  Ni  Ni23  1  0.66699109  0.33365776  0.33363938  1
  Ni  Ni24  1  0.66681526  0.66701569  0.00058479  1
  Ni  Ni25  1  0.83221601  0.83262792  0.16642423  1
  Ni  Ni26  1  0.66854210  0.66684262  0.33367990  1
  Ni  Ni27  1  0.16802207  0.16782003  0.50090927  1
  Ni  Ni28  1  0.00037773  1.00027112  0.66707411  1
  Ni  Ni29  1  0.16700128  0.16701737  0.83363573  1
  Ni  Ni30  1  0.16596011  0.49949548  0.50090927  1
  Ni  Ni31  1  0.00036083  0.33348093  0.66670627  1
  Ni  Ni32  1  0.16698090  0.50029815  0.83363573  1
  Ni  Ni33  1  0.16699109  0.83365776  0.50147149  1
  Ni  Ni34  1  0.00055456  0.66722123  0.66652537  1
  Ni  Ni35  1  0.16699109  0.83365776  0.83410409  1
  Ni  Ni36  1  0.49988521  0.16655188  0.49964505  1
  Ni  Ni37  1  0.33342762  1.00009428  0.66652537  1
  Ni  Ni38  1  0.50009998  0.16676665  0.83387633  1
  Ni  Ni39  1  0.50091661  0.49973224  0.50090660  1
  Ni  Ni40  1  0.33362135  0.33383458  0.66670627  1
  Ni  Ni41  1  0.50011018  0.50053867  0.83387631  1
  Ni  Ni42  1  0.50115337  0.83468874  0.50090927  1
  Ni  Ni43  1  0.33360445  0.66704440  0.66707411  1
  Ni  Ni44  1  0.50035070  0.83366795  0.83363573  1
  Ni  Ni45  1  0.83306557  0.16758328  0.50090660  1
  Ni  Ni46  1  0.66716792  1.00028802  0.66670627  1
  Ni  Ni47  1  0.83387201  0.16677684  0.83387631  1
  Ni  Ni48  1  0.83409697  0.50076364  0.49964505  1
  Ni  Ni49  1  0.66699109  0.33365776  0.66688691  1
  Ni  Ni50  1  0.83388220  0.50054887  0.83387633  1
  Ni  Ni51  1  0.83282882  0.83262678  0.50090927  1
  Ni  Ni52  1  0.66681427  0.66702750  0.66670627  1
  Ni  Ni53  1  0.83363148  0.83364757  0.83363573  1
" 