2985,Ni96Fe2Cr1_2,-239.852743372738, 180.41708920169,Ni96Fe2Cr1,"# generated using pymatgen
 data_CrFeNi52
_symmetry_space_group_name_H-M   'P 1'
_cell_length_a   7.46235066
_cell_length_b   7.46235066
_cell_length_c   10.55335750
_cell_angle_alpha   90.00000000
_cell_angle_beta   90.00000000
_cell_angle_gamma   90.00000000
_symmetry_Int_Tables_number   1
_chemical_formula_structural   CrFeNi52
_chemical_formula_sum   'Cr1 Fe1 Ni52'
_cell_volume   587.68141379
_cell_formula_units_Z   1
loop_
 _symmetry_equiv_pos_site_id
 _symmetry_equiv_pos_as_xyz
  1  'x, y, z'
loop_
 _atom_site_type_symbol
 _atom_site_label
 _atom_site_symmetry_multiplicity
 _atom_site_fract_x
 _atom_site_fract_y
 _atom_site_fract_z
 _atom_site_occupancy
  Ni  Ni0  1  1.00029431  1.00029431  0.00045902  1
  Ni  Ni1  1  0.16676354  0.16676354  0.16720876  1
  Ni  Ni2  1  0.00041385  0.00041385  0.33341233  1
  Ni  Ni3  1  0.00033170  0.33344329  1.00008128  1
  Ni  Ni4  1  0.16673927  0.50053435  0.16720917  1
  Ni  Ni5  1  0.00033342  0.33344061  0.33385205  1
  Ni  Ni6  1  1.00029423  0.66720625  1.00008189  1
  Ni  Ni7  1  0.16701239  0.83364640  0.16695772  1
  Ni  Ni8  1  0.00041283  0.66708705  0.33379055  1
  Ni  Ni9  1  0.33344329  0.00033170  1.00008128  1
  Ni  Ni10  1  0.50053435  0.16673927  0.16720917  1
  Ni  Ni11  1  0.33344061  0.00033342  0.33385205  1
  Ni  Ni12  1  0.33362187  0.33362187  1.00026887  1
  Ni  Ni13  1  0.50053471  0.50053471  0.16720953  1
  Ni  Ni14  1  0.33362180  0.33362180  0.33373291  1
  Ni  Ni15  1  0.33362168  0.66699082  1.00026869  1
  Ni  Ni16  1  0.50028320  0.83367030  0.16695561  1
  Ni  Ni17  1  0.33361673  0.66698868  0.33366480  1
  Ni  Ni18  1  0.66720625  1.00029423  1.00008189  1
  Ni  Ni19  1  0.83364640  0.16701239  0.16695772  1
  Ni  Ni20  1  0.66708705  0.00041283  0.33379055  1
  Ni  Ni21  1  0.66699082  0.33362168  1.00026869  1
  Ni  Ni22  1  0.83367030  0.50028320  0.16695561  1
  Ni  Ni23  1  0.66698868  0.33361673  0.33366480  1
  Ni  Ni24  1  0.66702836  0.66702836  1.00026880  1
  Ni  Ni25  1  0.83364612  0.83364612  0.16744955  1
  Ni  Ni26  1  0.66690995  0.66690995  0.33360448  1
  Ni  Ni27  1  0.16735918  0.16735918  0.49950010  1
  Cr  Cr28  1  0.00048619  0.00048619  0.66714533  1
  Ni  Ni29  1  0.16760009  0.16760009  0.83423879  1
  Ni  Ni30  1  0.16631591  0.50076794  0.50054214  1
  Ni  Ni31  1  0.00033074  0.33533347  0.66700762  1
  Ni  Ni32  1  0.16654847  0.50053391  0.83319246  1
  Ni  Ni33  1  0.16847930  0.83281418  0.49950063  1
  Ni  Ni34  1  0.00041684  0.66518483  0.66707540  1
  Ni  Ni35  1  0.16783930  0.83281194  0.83448052  1
  Ni  Ni36  1  0.50076794  0.16631591  0.50054214  1
  Ni  Ni37  1  0.33533347  0.00033074  0.66700762  1
  Ni  Ni38  1  0.50053391  0.16654847  0.83319246  1
  Ni  Ni39  1  0.50076494  0.50076494  0.50030640  1
  Ni  Ni40  1  0.33378585  0.33378585  0.66694282  1
  Ni  Ni41  1  0.50053403  0.50053403  0.83342847  1
  Ni  Ni42  1  0.49965760  0.83386108  0.50054236  1
  Ni  Ni43  1  0.33378041  0.66682635  0.66700872  1
  Ni  Ni44  1  0.50028594  0.83386141  0.83344238  1
  Ni  Ni45  1  0.83281418  0.16847930  0.49950063  1
  Ni  Ni46  1  0.66518483  0.00041684  0.66707540  1
  Ni  Ni47  1  0.83281194  0.16783930  0.83448052  1
  Ni  Ni48  1  0.83386108  0.49965760  0.50054236  1
  Ni  Ni49  1  0.66682635  0.33378041  0.66700872  1
  Ni  Ni50  1  0.83386141  0.50028594  0.83344238  1
  Fe  Fe51  1  0.83276908  0.83276908  0.49945005  1
  Ni  Ni52  1  0.66674403  0.66674403  0.66707238  1
  Ni  Ni53  1  0.83281358  0.83281358  0.83398778  1
" 