3032,Ni96Fe3Cr0_10,-239.003535727449, 177.485121244715,Ni96Fe3Cr0,"# generated using pymatgen
 data_Cr2FeNi51
_symmetry_space_group_name_H-M   'P 1'
_cell_length_a   7.46189691
_cell_length_b   7.46189691
_cell_length_c   10.55271581
_cell_angle_alpha   90.00000000
_cell_angle_beta   90.00000000
_cell_angle_gamma   90.00000000
_symmetry_Int_Tables_number   1
_chemical_formula_structural   Cr2FeNi51
_chemical_formula_sum   'Cr2 Fe1 Ni51'
_cell_volume   587.57421851
_cell_formula_units_Z   1
loop_
 _symmetry_equiv_pos_site_id
 _symmetry_equiv_pos_as_xyz
  1  'x, y, z'
loop_
 _atom_site_type_symbol
 _atom_site_label
 _atom_site_symmetry_multiplicity
 _atom_site_fract_x
 _atom_site_fract_y
 _atom_site_fract_z
 _atom_site_occupancy
  Ni  Ni0  1  0.00075487  0.00137097  0.99944818  1
  Ni  Ni1  1  0.16711775  0.16728761  0.16724676  1
  Ni  Ni2  1  0.00138141  0.00139412  0.33477719  1
  Ni  Ni3  1  0.00079689  0.33311274  0.00051560  1
  Ni  Ni4  1  0.16717750  0.50016355  0.16685728  1
  Ni  Ni5  1  0.99950865  0.33239559  0.33232526  1
  Ni  Ni6  1  0.00188920  0.66654396  0.99945621  1
  Ni  Ni7  1  0.16850859  0.83362524  0.16720445  1
  Ni  Ni8  1  0.00062961  0.66722387  0.33341445  1
  Fe  Fe9  1  0.33353897  0.00053034  1.00026251  1
  Ni  Ni10  1  0.50039231  0.16710882  0.16701169  1
  Ni  Ni11  1  0.33361011  1.00027299  0.33302605  1
  Ni  Ni12  1  0.33369361  0.33450664  1.00028483  1
  Ni  Ni13  1  0.50016472  0.50016700  0.16728861  1
  Ni  Ni14  1  0.33471129  0.33273333  0.33289854  1
  Ni  Ni15  1  0.33370307  0.66637234  0.00051859  1
  Ni  Ni16  1  0.49887035  0.83379709  0.16697246  1
  Ni  Ni17  1  0.33471379  0.66800018  0.33269794  1
  Ni  Ni18  1  0.66672114  0.00140020  0.99941909  1
  Ni  Ni19  1  0.83352103  0.16847856  0.16704926  1
  Ni  Ni20  1  0.66602741  0.00139166  0.33457094  1
  Ni  Ni21  1  0.66654712  0.33327531  0.00051802  1
  Ni  Ni22  1  0.83368954  0.49876048  0.16697140  1
  Ni  Ni23  1  0.66683448  0.33350542  0.33337923  1
  Ni  Ni24  1  0.66542523  0.66635233  0.99942513  1
  Cr  Cr25  1  0.83315781  0.83390775  0.16701213  1
  Ni  Ni26  1  0.66569321  0.66614083  0.33446501  1
  Ni  Ni27  1  0.16729765  0.16537331  0.50036807  1
  Ni  Ni28  1  0.00037643  0.00036937  0.66680005  1
  Ni  Ni29  1  0.16703321  0.16730823  0.83337221  1
  Cr  Cr30  1  0.16743413  0.49981964  0.50073341  1
  Ni  Ni31  1  0.99938227  0.33236752  0.66824284  1
  Ni  Ni32  1  0.16715145  0.50018511  0.83380829  1
  Ni  Ni33  1  0.16712713  0.83534116  0.50013806  1
  Ni  Ni34  1  0.99957449  0.66828014  0.66821282  1
  Ni  Ni35  1  0.16690214  0.83356215  0.83362241  1
  Ni  Ni36  1  0.50023778  0.16686113  0.50036675  1
  Ni  Ni37  1  0.33360166  1.00020769  0.66749442  1
  Ni  Ni38  1  0.50047072  0.16712959  0.83361169  1
  Ni  Ni39  1  0.50197010  0.50018779  0.50037069  1
  Ni  Ni40  1  0.33476958  0.33266945  0.66791515  1
  Ni  Ni41  1  0.50018335  0.50018717  0.83338030  1
  Ni  Ni42  1  0.50041426  0.83398595  0.50013459  1
  Ni  Ni43  1  0.33473997  0.66813691  0.66788300  1
  Ni  Ni44  1  0.50060815  0.83373433  0.83386182  1
  Ni  Ni45  1  0.83349983  0.16693161  0.50013713  1
  Ni  Ni46  1  0.66706032  0.00035994  0.66703351  1
  Ni  Ni47  1  0.83352553  0.16685770  0.83383409  1
  Ni  Ni48  1  0.83214450  0.50036202  0.50013610  1
  Ni  Ni49  1  0.66690152  0.33351253  0.66713078  1
  Ni  Ni50  1  0.83369327  0.50035823  0.83391978  1
  Ni  Ni51  1  0.83349640  0.83374384  0.50056959  1
  Ni  Ni52  1  0.66673822  0.66716460  0.66713397  1
  Ni  Ni53  1  0.83352351  0.83382120  0.83340890  1
" 