2788,Ni96Fe3Cr0_19,-239.02383034553, 177.97614659047,Ni96Fe3Cr0,"# generated using pymatgen
 data_Cr2FeNi51
_symmetry_space_group_name_H-M   'P 1'
_cell_length_a   7.46149342
_cell_length_b   7.46149342
_cell_length_c   10.55214519
_cell_angle_alpha   90.00000000
_cell_angle_beta   90.00000000
_cell_angle_gamma   90.00000000
_symmetry_Int_Tables_number   1
_chemical_formula_structural   Cr2FeNi51
_chemical_formula_sum   'Cr2 Fe1 Ni51'
_cell_volume   587.47890816
_cell_formula_units_Z   1
loop_
 _symmetry_equiv_pos_site_id
 _symmetry_equiv_pos_as_xyz
  1  'x, y, z'
loop_
 _atom_site_type_symbol
 _atom_site_label
 _atom_site_symmetry_multiplicity
 _atom_site_fract_x
 _atom_site_fract_y
 _atom_site_fract_z
 _atom_site_occupancy
  Ni  Ni0  1  0.99955307  0.99948785  0.99941400  1
  Cr  Cr1  1  0.16703886  0.16733694  0.16669723  1
  Ni  Ni2  1  1.00028119  0.99951542  0.33459517  1
  Ni  Ni3  1  0.99921491  0.33436788  0.99973100  1
  Ni  Ni4  1  0.16703886  0.50210404  0.16711184  1
  Ni  Ni5  1  0.99895129  0.33403812  0.33462325  1
  Ni  Ni6  1  0.00180736  0.66728403  0.00085009  1
  Ni  Ni7  1  0.16703886  0.83207102  0.16680411  1
  Ni  Ni8  1  0.99989090  0.66758006  0.33332854  1
  Ni  Ni9  1  0.33452464  0.99948785  0.99941400  1
  Ni  Ni10  1  0.50203192  0.16707193  0.16689597  1
  Ni  Ni11  1  0.33379652  0.99951542  0.33459517  1
  Ni  Ni12  1  0.33486280  0.33436788  0.99973100  1
  Ni  Ni13  1  0.49948798  0.49953583  0.16785596  1
  Ni  Ni14  1  0.33512643  0.33403812  0.33462325  1
  Ni  Ni15  1  0.33227035  0.66728403  0.00085009  1
  Ni  Ni16  1  0.49951873  0.83452122  0.16793956  1
  Ni  Ni17  1  0.33418682  0.66758006  0.33332854  1
  Ni  Ni18  1  0.66703886  0.00200231  0.00120139  1
  Ni  Ni19  1  0.83204580  0.16707193  0.16689597  1
  Fe  Fe20  1  0.66703886  1.00036094  0.33388328  1
  Ni  Ni21  1  0.66703886  0.33206410  0.00048141  1
  Ni  Ni22  1  0.83458974  0.49953583  0.16785596  1
  Ni  Ni23  1  0.66703886  0.33444079  0.33332061  1
  Cr  Cr24  1  0.66703886  0.66664380  0.99997734  1
  Ni  Ni25  1  0.83455899  0.83452122  0.16793956  1
  Ni  Ni26  1  0.66703886  0.66624604  0.33399729  1
  Ni  Ni27  1  0.16703886  0.16704708  0.50066832  1
  Ni  Ni28  1  0.00057395  0.00051258  0.66705289  1
  Ni  Ni29  1  0.16703886  0.16715802  0.83342212  1
  Ni  Ni30  1  0.16703886  0.50051162  0.49991711  1
  Ni  Ni31  1  1.00026673  0.33331903  0.66671854  1
  Ni  Ni32  1  0.16703886  0.50043079  0.83409776  1
  Ni  Ni33  1  0.16703886  0.83355080  0.50024197  1
  Ni  Ni34  1  1.00026116  0.66728366  0.66695233  1
  Ni  Ni35  1  0.16703886  0.83352597  0.83409117  1
  Ni  Ni36  1  0.50038264  0.16716929  0.50024815  1
  Ni  Ni37  1  0.33350376  0.00051258  0.66705289  1
  Ni  Ni38  1  0.50056339  0.16691673  0.83409599  1
  Ni  Ni39  1  0.50050133  0.50051321  0.50046071  1
  Ni  Ni40  1  0.33381099  0.33331903  0.66671854  1
  Ni  Ni41  1  0.49933029  0.49945094  0.83273707  1
  Ni  Ni42  1  0.50037568  0.83343725  0.50047067  1
  Ni  Ni43  1  0.33381655  0.66728366  0.66695233  1
  Ni  Ni44  1  0.49960324  0.83473790  0.83276344  1
  Ni  Ni45  1  0.83369507  0.16716929  0.50024815  1
  Ni  Ni46  1  0.66703886  0.00051287  0.66657750  1
  Ni  Ni47  1  0.83351433  0.16691673  0.83409599  1
  Ni  Ni48  1  0.83357638  0.50051321  0.50046071  1
  Ni  Ni49  1  0.66703886  0.33363103  0.66728409  1
  Ni  Ni50  1  0.83474743  0.49945094  0.83273707  1
  Ni  Ni51  1  0.83370204  0.83343725  0.50047067  1
  Ni  Ni52  1  0.66703886  0.66697423  0.66685704  1
  Ni  Ni53  1  0.83447447  0.83473790  0.83276344  1
" 