7865,Ni96Fe3Cr0_0,-239.048058685949, 178.017743751287,Ni96Fe3Cr0,"# generated using pymatgen
 data_Cr2FeNi51
_symmetry_space_group_name_H-M   'P 1'
_cell_length_a   7.46125724
_cell_length_b   7.46125724
_cell_length_c   10.55181118
_cell_angle_alpha   90.00000000
_cell_angle_beta   90.00000000
_cell_angle_gamma   90.00000000
_symmetry_Int_Tables_number   1
_chemical_formula_structural   Cr2FeNi51
_chemical_formula_sum   'Cr2 Fe1 Ni51'
_cell_volume   587.42312195
_cell_formula_units_Z   1
loop_
 _symmetry_equiv_pos_site_id
 _symmetry_equiv_pos_as_xyz
  1  'x, y, z'
loop_
 _atom_site_type_symbol
 _atom_site_label
 _atom_site_symmetry_multiplicity
 _atom_site_fract_x
 _atom_site_fract_y
 _atom_site_fract_z
 _atom_site_occupancy
  Ni  Ni0  1  1.00038803  1.00038548  0.00104668  1
  Ni  Ni1  1  0.16707424  0.16713884  0.16719996  1
  Fe  Fe2  1  0.00038803  0.00153632  0.33363430  1
  Ni  Ni3  1  0.00038803  0.33382484  0.00076469  1
  Ni  Ni4  1  0.16810861  0.49947025  0.16608821  1
  Ni  Ni5  1  0.00038803  0.33277249  0.33349265  1
  Ni  Ni6  1  0.00038803  0.66699290  0.99992955  1
  Ni  Ni7  1  0.16809935  0.83462091  0.16604201  1
  Cr  Cr8  1  0.00038803  0.66613075  0.33393167  1
  Ni  Ni9  1  0.33408220  1.00038512  1.00035083  1
  Ni  Ni10  1  0.50038803  0.16722080  0.16691842  1
  Ni  Ni11  1  0.33484212  0.00042963  0.33370536  1
  Ni  Ni12  1  0.33360733  0.33332139  0.00045679  1
  Ni  Ni13  1  0.50038803  0.50031257  0.16747462  1
  Ni  Ni14  1  0.33336291  0.33303575  0.33392701  1
  Ni  Ni15  1  0.33360970  0.66745027  0.00091258  1
  Ni  Ni16  1  0.50038803  0.83364355  0.16716456  1
  Ni  Ni17  1  0.33490474  0.66776879  0.33370409  1
  Ni  Ni18  1  0.66669386  1.00038512  1.00035083  1
  Ni  Ni19  1  0.83370182  0.16713884  0.16719996  1
  Ni  Ni20  1  0.66593394  0.00042963  0.33370536  1
  Ni  Ni21  1  0.66716873  0.33332139  0.00045679  1
  Ni  Ni22  1  0.83266745  0.49947025  0.16608821  1
  Ni  Ni23  1  0.66741315  0.33303575  0.33392701  1
  Ni  Ni24  1  0.66716636  0.66745027  0.00091258  1
  Ni  Ni25  1  0.83267671  0.83462091  0.16604201  1
  Ni  Ni26  1  0.66587132  0.66776879  0.33370409  1
  Ni  Ni27  1  0.16799640  0.16607553  0.49931728  1
  Ni  Ni28  1  0.00038803  0.99880113  0.66618558  1
  Ni  Ni29  1  0.16783192  0.16587050  0.83464478  1
  Ni  Ni30  1  0.16911921  0.50044907  0.50046493  1
  Cr  Cr31  1  0.00038803  0.33410671  0.66720072  1
  Ni  Ni32  1  0.16825978  0.50144376  0.83466222  1
  Ni  Ni33  1  0.16811342  0.83466631  0.50151668  1
  Ni  Ni34  1  0.00038803  0.66863255  0.66732109  1
  Ni  Ni35  1  0.16686302  0.83385240  0.83354485  1
  Ni  Ni36  1  0.50038803  0.16714788  0.50069519  1
  Ni  Ni37  1  0.33412019  1.00035647  0.66711864  1
  Ni  Ni38  1  0.50038803  0.16724846  0.83354803  1
  Ni  Ni39  1  0.50038803  0.50038623  0.50014147  1
  Ni  Ni40  1  0.33522390  0.33332210  0.66677528  1
  Ni  Ni41  1  0.50038803  0.50045696  0.83354425  1
  Ni  Ni42  1  0.50038803  0.83363795  0.50021984  1
  Ni  Ni43  1  0.33362815  0.66747228  0.66654787  1
  Ni  Ni44  1  0.50038803  0.83345733  0.83378153  1
  Ni  Ni45  1  0.83277966  0.16607553  0.49931728  1
  Ni  Ni46  1  0.66665587  1.00035647  0.66711864  1
  Ni  Ni47  1  0.83294414  0.16587050  0.83464478  1
  Ni  Ni48  1  0.83165685  0.50044907  0.50046493  1
  Ni  Ni49  1  0.66555216  0.33332210  0.66677528  1
  Ni  Ni50  1  0.83251628  0.50144376  0.83466222  1
  Ni  Ni51  1  0.83266264  0.83466631  0.50151668  1
  Ni  Ni52  1  0.66714791  0.66747228  0.66654787  1
  Ni  Ni53  1  0.83391304  0.83385240  0.83354485  1
" 