8622,Ni96Fe3Cr0_13,-239.065190585857, 178.212101667451,Ni96Fe3Cr0,"# generated using pymatgen
 data_Cr2FeNi51
_symmetry_space_group_name_H-M   'P 1'
_cell_length_a   7.46129469
_cell_length_b   7.46129469
_cell_length_c   10.55186415
_cell_angle_alpha   90.00000000
_cell_angle_beta   90.00000000
_cell_angle_gamma   90.00000000
_symmetry_Int_Tables_number   1
_chemical_formula_structural   Cr2FeNi51
_chemical_formula_sum   'Cr2 Fe1 Ni51'
_cell_volume   587.43196875
_cell_formula_units_Z   1
loop_
 _symmetry_equiv_pos_site_id
 _symmetry_equiv_pos_as_xyz
  1  'x, y, z'
loop_
 _atom_site_type_symbol
 _atom_site_label
 _atom_site_symmetry_multiplicity
 _atom_site_fract_x
 _atom_site_fract_y
 _atom_site_fract_z
 _atom_site_occupancy
  Ni  Ni0  1  1.00037798  0.00039574  1.00015812  1
  Ni  Ni1  1  0.16745978  0.16617691  0.16707163  1
  Ni  Ni2  1  1.00038283  0.00039261  0.33400239  1
  Ni  Ni3  1  0.00054045  0.33395684  0.00048423  1
  Ni  Ni4  1  0.16762062  0.50094331  0.16684073  1
  Ni  Ni5  1  0.00054340  0.33403258  0.33344332  1
  Ni  Ni6  1  0.00054242  0.66680518  1.00015894  1
  Ni  Ni7  1  0.16607239  0.83402638  0.16706715  1
  Ni  Ni8  1  0.00054539  0.66672840  0.33377149  1
  Ni  Ni9  1  0.33373846  0.00047702  0.99995715  1
  Ni  Ni10  1  0.50037069  0.16797671  0.16683396  1
  Ni  Ni11  1  0.33375970  0.00051571  0.33401225  1
  Ni  Ni12  1  0.33246293  0.33282341  0.00126854  1
  Ni  Ni13  1  0.50054088  0.49961220  0.16729340  1
  Ni  Ni14  1  0.33353388  0.33385715  0.33376946  1
  Ni  Ni15  1  0.33246949  0.66791490  0.00133656  1
  Fe  Fe16  1  0.50032871  0.83384650  0.16714944  1
  Ni  Ni17  1  0.33344230  0.66680785  0.33374592  1
  Ni  Ni18  1  0.66705375  0.00047160  0.00041197  1
  Ni  Ni19  1  0.83332806  0.16634722  0.16707275  1
  Ni  Ni20  1  0.66702129  0.00051020  0.33355648  1
  Ni  Ni21  1  0.66813905  0.33266727  0.00103205  1
  Ni  Ni22  1  0.83299346  0.50094291  0.16683852  1
  Ni  Ni23  1  0.66707556  0.33369272  0.33400469  1
  Ni  Ni24  1  0.66813618  0.66807799  0.00109675  1
  Ni  Ni25  1  0.83471565  0.83385654  0.16706826  1
  Ni  Ni26  1  0.66717149  0.66697892  0.33398489  1
  Ni  Ni27  1  0.16715762  0.16655672  0.50023140  1
  Ni  Ni28  1  0.00206848  0.00050818  0.66698742  1
  Ni  Ni29  1  0.16712731  0.16653195  0.83384816  1
  Ni  Ni30  1  0.16732908  0.50064167  0.50023277  1
  Ni  Ni31  1  0.00057506  0.33398765  0.66723725  1
  Ni  Ni32  1  0.16562641  0.50064337  0.83409419  1
  Ni  Ni33  1  0.16683425  0.83395875  0.50057941  1
  Ni  Ni34  1  0.00057438  0.66666131  0.66723434  1
  Ni  Ni35  1  0.16679357  0.83398642  0.83349432  1
  Ni  Ni36  1  0.49930412  0.16822571  0.49969764  1
  Ni  Ni37  1  0.33226623  1.00026103  0.66723321  1
  Ni  Ni38  1  0.49930337  0.16648184  0.83459662  1
  Ni  Ni39  1  0.50045946  0.50031843  0.50038401  1
  Ni  Ni40  1  0.33228850  0.33278959  0.66607360  1
  Cr  Cr41  1  0.50046496  0.49999133  0.83318819  1
  Ni  Ni42  1  0.49930332  0.83262208  0.49896974  1
  Ni  Ni43  1  0.33257226  0.66809403  0.66609800  1
  Ni  Ni44  1  0.49930160  0.83427697  0.83533570  1
  Ni  Ni45  1  0.83471100  0.16772931  0.49910313  1
  Cr  Cr46  1  0.66682416  1.00024242  0.66723266  1
  Ni  Ni47  1  0.83472743  0.16768755  0.83497115  1
  Ni  Ni48  1  0.83336137  0.50064640  0.50048144  1
  Ni  Ni49  1  0.66829639  0.33429145  0.66606954  1
  Ni  Ni50  1  0.83505246  0.50064827  0.83385234  1
  Ni  Ni51  1  0.83504267  0.83278419  0.49945966  1
  Ni  Ni52  1  0.66801615  0.66658793  0.66609239  1
  Ni  Ni53  1  0.83506957  0.83282862  0.83460862  1
" 