1102,Ni96Fe2Cr0_15,-239.852743372738, 180.417090371904,Ni96Fe2Cr0,"# generated using pymatgen
 data_CrFeNi52
_symmetry_space_group_name_H-M   'P 1'
_cell_length_a   7.46235066
_cell_length_b   7.46235066
_cell_length_c   10.55335750
_cell_angle_alpha   90.00000000
_cell_angle_beta   90.00000000
_cell_angle_gamma   90.00000000
_symmetry_Int_Tables_number   1
_chemical_formula_structural   CrFeNi52
_chemical_formula_sum   'Cr1 Fe1 Ni52'
_cell_volume   587.68141379
_cell_formula_units_Z   1
loop_
 _symmetry_equiv_pos_site_id
 _symmetry_equiv_pos_as_xyz
  1  'x, y, z'
loop_
 _atom_site_type_symbol
 _atom_site_label
 _atom_site_symmetry_multiplicity
 _atom_site_fract_x
 _atom_site_fract_y
 _atom_site_fract_z
 _atom_site_occupancy
  Ni  Ni0  1  0.00031663  0.00031663  0.00078288  1
  Ni  Ni1  1  0.16705280  0.16705280  0.16693782  1
  Fe  Fe2  1  0.00119368  0.00119368  0.33278338  1
  Ni  Ni3  1  1.00029245  0.33367955  1.00028894  1
  Ni  Ni4  1  0.16697407  0.50034603  0.16699814  1
  Ni  Ni5  1  1.00010167  0.33430515  0.33387569  1
  Ni  Ni6  1  0.00031635  0.66695036  1.00029105  1
  Ni  Ni7  1  0.16687570  0.83354992  0.16712388  1
  Ni  Ni8  1  0.00114857  0.66548346  0.33283396  1
  Ni  Ni9  1  0.33367955  1.00029245  1.00028894  1
  Ni  Ni10  1  0.50034603  0.16697407  0.16699814  1
  Ni  Ni11  1  0.33430515  1.00010167  0.33387569  1
  Ni  Ni12  1  0.33342804  0.33342804  0.00054287  1
  Ni  Ni13  1  0.50034095  0.50034095  0.16706625  1
  Ni  Ni14  1  0.33319781  0.33319781  0.33363973  1
  Ni  Ni15  1  0.33342841  0.66722348  0.00054250  1
  Ni  Ni16  1  0.50052214  0.83362933  0.16718538  1
  Ni  Ni17  1  0.33319481  0.66764684  0.33387548  1
  Ni  Ni18  1  0.66695036  0.00031635  1.00029105  1
  Ni  Ni19  1  0.83354992  0.16687570  0.16712388  1
  Ni  Ni20  1  0.66548346  0.00114857  0.33283396  1
  Ni  Ni21  1  0.66722348  0.33342841  0.00054250  1
  Ni  Ni22  1  0.83362933  0.50052214  0.16718538  1
  Ni  Ni23  1  0.66764684  0.33319481  0.33387548  1
  Ni  Ni24  1  0.66719922  0.66719922  0.00054210  1
  Ni  Ni25  1  0.83354890  0.83354890  0.16674566  1
  Ni  Ni26  1  0.66660357  0.66660357  0.33283344  1
  Ni  Ni27  1  0.16721872  0.16721872  0.50040571  1
  Ni  Ni28  1  0.00114917  0.00114917  0.66732112  1
  Ni  Ni29  1  0.16693439  0.16693439  0.83360214  1
  Ni  Ni30  1  0.16713640  0.50018235  0.50034205  1
  Ni  Ni31  1  1.00010134  0.33367682  0.66677571  1
  Ni  Ni32  1  0.16697194  0.50034107  0.83360203  1
  Ni  Ni33  1  0.16877792  0.83354591  0.50040874  1
  Ni  Ni34  1  0.00115081  0.66612346  0.66781385  1
  Ni  Ni35  1  0.16675650  0.83366853  0.83341522  1
  Ni  Ni36  1  0.50018235  0.16713640  0.50034205  1
  Ni  Ni37  1  0.33367682  1.00010134  0.66677571  1
  Ni  Ni38  1  0.50034107  0.16697194  0.83360203  1
  Ni  Ni39  1  0.50017690  0.50017690  0.50027615  1
  Ni  Ni40  1  0.33342872  0.33342872  0.66676180  1
  Ni  Ni41  1  0.50034088  0.50034088  0.83360220  1
  Ni  Ni42  1  0.49862928  0.83363202  0.50034095  1
  Ni  Ni43  1  0.33342885  0.66741428  0.66652580  1
  Ni  Ni44  1  0.50051946  0.83363105  0.83341461  1
  Ni  Ni45  1  0.83354591  0.16877792  0.50040874  1
  Ni  Ni46  1  0.66612346  0.00115081  0.66781385  1
  Ni  Ni47  1  0.83366853  0.16675650  0.83341522  1
  Ni  Ni48  1  0.83363202  0.49862928  0.50034095  1
  Ni  Ni49  1  0.66741428  0.33342885  0.66652580  1
  Ni  Ni50  1  0.83363105  0.50051946  0.83341461  1
  Cr  Cr51  1  0.83347657  0.83347657  0.50047867  1
  Ni  Ni52  1  0.66636266  0.66636266  0.66757213  1
  Ni  Ni53  1  0.83366845  0.83366845  0.83379235  1
" 