5561,Ni96Fe3Cr0_15,-239.069148621377, 178.347174181293,Ni96Fe3Cr0,"# generated using pymatgen
 data_Cr2FeNi51
_symmetry_space_group_name_H-M   'P 1'
_cell_length_a   7.46129646
_cell_length_b   7.46129646
_cell_length_c   10.55186665
_cell_angle_alpha   90.00000000
_cell_angle_beta   90.00000000
_cell_angle_gamma   90.00000000
_symmetry_Int_Tables_number   1
_chemical_formula_structural   Cr2FeNi51
_chemical_formula_sum   'Cr2 Fe1 Ni51'
_cell_volume   587.43238720
_cell_formula_units_Z   1
loop_
 _symmetry_equiv_pos_site_id
 _symmetry_equiv_pos_as_xyz
  1  'x, y, z'
loop_
 _atom_site_type_symbol
 _atom_site_label
 _atom_site_symmetry_multiplicity
 _atom_site_fract_x
 _atom_site_fract_y
 _atom_site_fract_z
 _atom_site_occupancy
  Ni  Ni0  1  0.00147923  0.99942338  0.99960217  1
  Ni  Ni1  1  0.16710524  0.16868859  0.16612191  1
  Ni  Ni2  1  0.99977450  0.99942288  0.33472097  1
  Ni  Ni3  1  0.00142765  0.33482247  0.99936289  1
  Ni  Ni4  1  0.16815235  0.50057996  0.16723678  1
  Ni  Ni5  1  0.00137494  0.33485278  0.33471002  1
  Ni  Ni6  1  1.00022333  0.66699671  0.00052600  1
  Ni  Ni7  1  0.16565229  0.83195363  0.16612338  1
  Ni  Ni8  1  1.00018831  0.66695385  0.33355394  1
  Ni  Ni9  1  0.33371873  0.00046404  0.00059194  1
  Ni  Ni10  1  0.50033223  0.16868859  0.16612191  1
  Cr  Cr11  1  0.33371873  0.00047205  0.33330036  1
  Ni  Ni12  1  0.33371873  0.33359317  0.00072374  1
  Ni  Ni13  1  0.49928512  0.50057996  0.16723678  1
  Ni  Ni14  1  0.33371873  0.33527821  0.33361273  1
  Ni  Ni15  1  0.33371873  0.66710246  0.00046567  1
  Ni  Ni16  1  0.50178517  0.83195363  0.16612338  1
  Ni  Ni17  1  0.33371873  0.66540572  0.33386439  1
  Ni  Ni18  1  0.66595824  0.99942338  0.99960217  1
  Cr  Cr19  1  0.83371873  0.16604791  0.16722733  1
  Ni  Ni20  1  0.66766296  0.99942288  0.33472097  1
  Ni  Ni21  1  0.66600981  0.33482247  0.99936289  1
  Fe  Fe22  1  0.83371873  0.50175765  0.16696157  1
  Ni  Ni23  1  0.66606253  0.33485278  0.33471002  1
  Ni  Ni24  1  0.66721413  0.66699671  0.00052600  1
  Ni  Ni25  1  0.83371873  0.83286671  0.16723313  1
  Ni  Ni26  1  0.66724915  0.66695385  0.33355394  1
  Ni  Ni27  1  0.16570632  0.16836455  0.50079806  1
  Ni  Ni28  1  0.00054264  1.00037046  0.66683760  1
  Ni  Ni29  1  0.16675621  0.16731988  0.83423954  1
  Ni  Ni30  1  0.16735442  0.50052635  0.50026752  1
  Ni  Ni31  1  1.00012723  0.33400878  0.66707061  1
  Ni  Ni32  1  0.16740853  0.50052915  0.83365969  1
  Ni  Ni33  1  0.16587237  0.83224580  0.50103428  1
  Ni  Ni34  1  0.99996648  0.66677837  0.66706951  1
  Ni  Ni35  1  0.16692881  0.83329745  0.83400434  1
  Ni  Ni36  1  0.50173115  0.16836455  0.50079806  1
  Ni  Ni37  1  0.33371873  0.00053073  0.66728170  1
  Ni  Ni38  1  0.50068125  0.16731988  0.83423954  1
  Ni  Ni39  1  0.50008304  0.50052635  0.50026752  1
  Ni  Ni40  1  0.33371873  0.33343146  0.66683703  1
  Ni  Ni41  1  0.50002893  0.50052915  0.83365969  1
  Ni  Ni42  1  0.50156510  0.83224580  0.50103428  1
  Ni  Ni43  1  0.33371873  0.66719244  0.66683914  1
  Ni  Ni44  1  0.50050865  0.83329745  0.83400434  1
  Ni  Ni45  1  0.83371873  0.16691906  0.50045301  1
  Ni  Ni46  1  0.66689482  1.00037046  0.66683760  1
  Ni  Ni47  1  0.83371873  0.16685795  0.83346357  1
  Ni  Ni48  1  0.83371873  0.50035892  0.49956509  1
  Ni  Ni49  1  0.66731023  0.33400878  0.66707061  1
  Ni  Ni50  1  0.83371873  0.50036349  0.83459511  1
  Ni  Ni51  1  0.83371873  0.83392443  0.50003823  1
  Ni  Ni52  1  0.66747098  0.66677837  0.66706951  1
  Ni  Ni53  1  0.83371873  0.83397507  0.83387937  1
" 