3870,Ni96Fe2Cr0_16,-239.84290879305, 180.359577981187,Ni96Fe2Cr0,"# generated using pymatgen
 data_CrFeNi52
_symmetry_space_group_name_H-M   'P 1'
_cell_length_a   7.46224677
_cell_length_b   7.46224677
_cell_length_c   10.55321059
_cell_angle_alpha   90.00000000
_cell_angle_beta   90.00000000
_cell_angle_gamma   90.00000000
_symmetry_Int_Tables_number   1
_chemical_formula_structural   CrFeNi52
_chemical_formula_sum   'Cr1 Fe1 Ni52'
_cell_volume   587.65687005
_cell_formula_units_Z   1
loop_
 _symmetry_equiv_pos_site_id
 _symmetry_equiv_pos_as_xyz
  1  'x, y, z'
loop_
 _atom_site_type_symbol
 _atom_site_label
 _atom_site_symmetry_multiplicity
 _atom_site_fract_x
 _atom_site_fract_y
 _atom_site_fract_z
 _atom_site_occupancy
  Ni  Ni0  1  0.00056214  0.00032168  0.00052989  1
  Ni  Ni1  1  0.16652716  0.16571590  0.16698834  1
  Ni  Ni2  1  0.00056214  0.00032168  0.33344680  1
  Ni  Ni3  1  0.99958383  0.33270794  0.99939662  1
  Cr  Cr4  1  0.16767723  0.50032168  0.16698834  1
  Ni  Ni5  1  0.99958383  0.33270794  0.33458007  1
  Ni  Ni6  1  0.99958383  0.66793541  0.99939662  1
  Ni  Ni7  1  0.16652716  0.83492745  0.16698834  1
  Ni  Ni8  1  0.99958383  0.66793541  0.33458007  1
  Ni  Ni9  1  0.33343249  0.00032168  0.00058719  1
  Ni  Ni10  1  0.50091584  0.16730531  0.16698834  1
  Ni  Ni11  1  0.33343249  0.00032168  0.33338950  1
  Ni  Ni12  1  0.33448540  0.33279574  0.99946953  1
  Ni  Ni13  1  0.50140349  0.50032168  0.16698834  1
  Ni  Ni14  1  0.33448540  0.33279574  0.33450716  1
  Ni  Ni15  1  0.33448540  0.66784761  0.99946953  1
  Ni  Ni16  1  0.50091584  0.83333804  0.16698834  1
  Ni  Ni17  1  0.33448540  0.66784761  0.33450716  1
  Ni  Ni18  1  0.66696911  0.00032168  1.00028813  1
  Ni  Ni19  1  0.83351510  0.16618594  0.16698834  1
  Ni  Ni20  1  0.66696911  0.00032168  0.33368856  1
  Ni  Ni21  1  0.66688685  0.33377818  0.00046282  1
  Fe  Fe22  1  0.83194166  0.50032168  0.16698834  1
  Ni  Ni23  1  0.66688685  0.33377818  0.33351387  1
  Ni  Ni24  1  0.66688685  0.66686517  0.00046282  1
  Ni  Ni25  1  0.83351510  0.83445741  0.16698834  1
  Ni  Ni26  1  0.66688685  0.66686517  0.33351387  1
  Ni  Ni27  1  0.16676604  0.16742687  0.49985418  1
  Ni  Ni28  1  0.00035215  0.00032168  0.66698834  1
  Ni  Ni29  1  0.16676604  0.16742687  0.83412251  1
  Ni  Ni30  1  0.16701342  0.50032168  0.50048571  1
  Ni  Ni31  1  1.00030425  0.33367009  0.66698834  1
  Ni  Ni32  1  0.16701342  0.50032168  0.83349097  1
  Ni  Ni33  1  0.16676604  0.83321648  0.49985418  1
  Ni  Ni34  1  1.00030425  0.66697326  0.66698834  1
  Ni  Ni35  1  0.16676604  0.83321648  0.83412251  1
  Ni  Ni36  1  0.50051027  0.16724516  0.50004294  1
  Ni  Ni37  1  0.33363759  0.00032168  0.66698834  1
  Ni  Ni38  1  0.50051027  0.16724516  0.83393374  1
  Ni  Ni39  1  0.50007636  0.50032168  0.50010704  1
  Ni  Ni40  1  0.33365616  0.33364075  0.66698834  1
  Ni  Ni41  1  0.50007636  0.50032168  0.83386964  1
  Ni  Ni42  1  0.50051027  0.83339819  0.50004294  1
  Ni  Ni43  1  0.33365616  0.66700260  0.66698834  1
  Ni  Ni44  1  0.50051027  0.83339819  0.83393374  1
  Ni  Ni45  1  0.83368969  0.16699569  0.50029389  1
  Ni  Ni46  1  0.66697526  0.00032168  0.66698834  1
  Ni  Ni47  1  0.83368969  0.16699569  0.83368279  1
  Ni  Ni48  1  0.83387072  0.50032168  0.49961144  1
  Ni  Ni49  1  0.66700465  0.33368872  0.66698834  1
  Ni  Ni50  1  0.83387072  0.50032168  0.83436524  1
  Ni  Ni51  1  0.83368969  0.83364766  0.50029389  1
  Ni  Ni52  1  0.66700465  0.66695463  0.66698834  1
  Ni  Ni53  1  0.83368969  0.83364766  0.83368279  1
" 