99,Ni96Fe2Cr0_3,-239.833373914862, 180.475841247455,Ni96Fe2Cr0,"# generated using pymatgen
 data_CrFeNi52
_symmetry_space_group_name_H-M   'P 1'
_cell_length_a   7.46098754
_cell_length_b   7.46098754
_cell_length_c   10.55142977
_cell_angle_alpha   90.00000000
_cell_angle_beta   90.00000000
_cell_angle_gamma   90.00000000
_symmetry_Int_Tables_number   1
_chemical_formula_structural   CrFeNi52
_chemical_formula_sum   'Cr1 Fe1 Ni52'
_cell_volume   587.35942484
_cell_formula_units_Z   1
loop_
 _symmetry_equiv_pos_site_id
 _symmetry_equiv_pos_as_xyz
  1  'x, y, z'
loop_
 _atom_site_type_symbol
 _atom_site_label
 _atom_site_symmetry_multiplicity
 _atom_site_fract_x
 _atom_site_fract_y
 _atom_site_fract_z
 _atom_site_occupancy
  Ni  Ni0  1  0.00140047  0.00146439  0.99944484  1
  Ni  Ni1  1  0.16718698  0.16732374  0.16705609  1
  Ni  Ni2  1  0.00064389  0.00141243  0.33461229  1
  Ni  Ni3  1  0.00058102  0.33349410  0.00088133  1
  Ni  Ni4  1  0.16723610  0.50022761  0.16699807  1
  Ni  Ni5  1  0.00088395  0.33319355  0.33357096  1
  Ni  Ni6  1  0.00173417  0.66624020  0.99976223  1
  Ni  Ni7  1  0.16864311  0.83370775  0.16709520  1
  Ni  Ni8  1  0.00197949  0.66658424  0.33463622  1
  Ni  Ni9  1  0.33373945  1.00033330  0.00123364  1
  Ni  Ni10  1  0.50029192  0.16732374  0.16705609  1
  Fe  Fe11  1  0.33373945  0.00060226  0.33382923  1
  Ni  Ni12  1  0.33373945  0.33380897  1.00029901  1
  Ni  Ni13  1  0.50024280  0.50022761  0.16699807  1
  Ni  Ni14  1  0.33373945  0.33459008  0.33380178  1
  Ni  Ni15  1  0.33373945  0.66706801  0.00052710  1
  Ni  Ni16  1  0.49883579  0.83370775  0.16709520  1
  Ni  Ni17  1  0.33373945  0.66640875  0.33356791  1
  Ni  Ni18  1  0.66607844  0.00146439  0.99944484  1
  Ni  Ni19  1  0.83373945  0.16862918  0.16700893  1
  Ni  Ni20  1  0.66683501  0.00141243  0.33461229  1
  Ni  Ni21  1  0.66689788  0.33349410  0.00088133  1
  Ni  Ni22  1  0.83373945  0.49875322  0.16732656  1
  Ni  Ni23  1  0.66659495  0.33319355  0.33357096  1
  Ni  Ni24  1  0.66574473  0.66624020  0.99976223  1
  Cr  Cr25  1  0.83373945  0.83343999  0.16667819  1
  Ni  Ni26  1  0.66549941  0.66658424  0.33463622  1
  Ni  Ni27  1  0.16710791  0.16734763  0.50049374  1
  Ni  Ni28  1  1.00035675  0.00042209  0.66711354  1
  Ni  Ni29  1  0.16736556  0.16709871  0.83371546  1
  Ni  Ni30  1  0.16721935  0.50023969  0.50050005  1
  Ni  Ni31  1  0.00050007  0.33349288  0.66677376  1
  Ni  Ni32  1  0.16711207  0.50024481  0.83371273  1
  Ni  Ni33  1  0.16697529  0.83364752  0.50024333  1
  Ni  Ni34  1  0.00066977  0.66730387  0.66677294  1
  Ni  Ni35  1  0.16719267  0.83387255  0.83395171  1
  Ni  Ni36  1  0.50037099  0.16734763  0.50049374  1
  Ni  Ni37  1  0.33373945  1.00025409  0.66641030  1
  Ni  Ni38  1  0.50011334  0.16709871  0.83371546  1
  Ni  Ni39  1  0.50025955  0.50023969  0.50050005  1
  Ni  Ni40  1  0.33373945  0.33380341  0.66711219  1
  Ni  Ni41  1  0.50036683  0.50024481  0.83371273  1
  Ni  Ni42  1  0.50050361  0.83364752  0.50024333  1
  Ni  Ni43  1  0.33373945  0.66715812  0.66711485  1
  Ni  Ni44  1  0.50028624  0.83387255  0.83395171  1
  Ni  Ni45  1  0.83373945  0.16708234  0.50027882  1
  Ni  Ni46  1  0.66712215  0.00042209  0.66711354  1
  Ni  Ni47  1  0.83373945  0.16718229  0.83394912  1
  Ni  Ni48  1  0.83373945  0.50041349  0.49994689  1
  Ni  Ni49  1  0.66697883  0.33349288  0.66677376  1
  Ni  Ni50  1  0.83373945  0.50042103  0.83395299  1
  Ni  Ni51  1  0.83373945  0.83372873  0.50070665  1
  Ni  Ni52  1  0.66680913  0.66730387  0.66677294  1
  Ni  Ni53  1  0.83373945  0.83361752  0.83351720  1
" 