5459,Ni96Fe3Cr0_9,-238.993907483807, 177.397680161417,Ni96Fe3Cr0,"# generated using pymatgen
 data_Cr2FeNi51
_symmetry_space_group_name_H-M   'P 1'
_cell_length_a   7.46239608
_cell_length_b   7.46239608
_cell_length_c   10.55342174
_cell_angle_alpha   90.00000000
_cell_angle_beta   90.00000000
_cell_angle_gamma   90.00000000
_symmetry_Int_Tables_number   1
_chemical_formula_structural   Cr2FeNi51
_chemical_formula_sum   'Cr2 Fe1 Ni51'
_cell_volume   587.69214490
_cell_formula_units_Z   1
loop_
 _symmetry_equiv_pos_site_id
 _symmetry_equiv_pos_as_xyz
  1  'x, y, z'
loop_
 _atom_site_type_symbol
 _atom_site_label
 _atom_site_symmetry_multiplicity
 _atom_site_fract_x
 _atom_site_fract_y
 _atom_site_fract_z
 _atom_site_occupancy
  Ni  Ni0  1  0.99881419  0.99982337  0.99960134  1
  Cr  Cr1  1  0.16697833  0.16536624  0.16736344  1
  Ni  Ni2  1  0.99906945  0.99946837  0.33409584  1
  Ni  Ni3  1  0.99894490  0.33364500  0.99846118  1
  Cr  Cr4  1  0.16697833  0.50192376  0.16736344  1
  Ni  Ni5  1  0.99814295  0.33364500  0.33562700  1
  Ni  Ni6  1  0.99881419  0.66746662  0.99960134  1
  Ni  Ni7  1  0.16697833  0.83364500  0.16672051  1
  Ni  Ni8  1  0.99906945  0.66782162  0.33409584  1
  Ni  Ni9  1  0.33514248  0.99982337  0.99960134  1
  Ni  Ni10  1  0.50211216  0.16676528  0.16694345  1
  Ni  Ni11  1  0.33488721  0.99946837  0.33409584  1
  Ni  Ni12  1  0.33501176  0.33364500  0.99846118  1
  Ni  Ni13  1  0.50211216  0.50052471  0.16694345  1
  Ni  Ni14  1  0.33581371  0.33364500  0.33562700  1
  Ni  Ni15  1  0.33514248  0.66746662  0.99960134  1
  Ni  Ni16  1  0.50065445  0.83364500  0.16705416  1
  Ni  Ni17  1  0.33488721  0.66782162  0.33409584  1
  Ni  Ni18  1  0.66697833  0.99958684  0.00042238  1
  Ni  Ni19  1  0.83184450  0.16676528  0.16694345  1
  Ni  Ni20  1  0.66697833  1.00030228  0.33358519  1
  Fe  Fe21  1  0.66697833  0.33364500  1.00012510  1
  Ni  Ni22  1  0.83184450  0.50052471  0.16694345  1
  Ni  Ni23  1  0.66697833  0.33364500  0.33264367  1
  Ni  Ni24  1  0.66697833  0.66770316  0.00042238  1
  Ni  Ni25  1  0.83330221  0.83364500  0.16705416  1
  Ni  Ni26  1  0.66697833  0.66698771  0.33358519  1
  Ni  Ni27  1  0.16697833  0.16686466  0.50032845  1
  Ni  Ni28  1  1.00020057  0.00054466  0.66727915  1
  Ni  Ni29  1  0.16697833  0.16696558  0.83354075  1
  Ni  Ni30  1  0.16697833  0.50042534  0.50032845  1
  Ni  Ni31  1  0.00034157  0.33364500  0.66694195  1
  Ni  Ni32  1  0.16697833  0.50032442  0.83354075  1
  Ni  Ni33  1  0.16697833  0.83364500  0.49987303  1
  Ni  Ni34  1  1.00020057  0.66674534  0.66727915  1
  Ni  Ni35  1  0.16697833  0.83364500  0.83432371  1
  Ni  Ni36  1  0.50059022  0.16694966  0.50011971  1
  Ni  Ni37  1  0.33375609  0.00054466  0.66727915  1
  Ni  Ni38  1  0.50033002  0.16669034  0.83375299  1
  Ni  Ni39  1  0.50059022  0.50034033  0.50011971  1
  Ni  Ni40  1  0.33361510  0.33364500  0.66694195  1
  Ni  Ni41  1  0.50033002  0.50059966  0.83375299  1
  Ni  Ni42  1  0.50051876  0.83364500  0.50036990  1
  Ni  Ni43  1  0.33375609  0.66674534  0.66727915  1
  Ni  Ni44  1  0.50062355  0.83364500  0.83352583  1
  Ni  Ni45  1  0.83336644  0.16694966  0.50011971  1
  Ni  Ni46  1  0.66697833  0.00040281  0.66694195  1
  Ni  Ni47  1  0.83362664  0.16669034  0.83375299  1
  Ni  Ni48  1  0.83336644  0.50034033  0.50011971  1
  Ni  Ni49  1  0.66697833  0.33364500  0.66764960  1
  Ni  Ni50  1  0.83362664  0.50059966  0.83375299  1
  Ni  Ni51  1  0.83343790  0.83364500  0.50036990  1
  Ni  Ni52  1  0.66697833  0.66688719  0.66694195  1
  Ni  Ni53  1  0.83333311  0.83364500  0.83352583  1
" 