4619,Ni96Fe2Cr0_19,-239.84067709179, 180.234391433361,Ni96Fe2Cr0,"# generated using pymatgen
 data_CrFeNi52
_symmetry_space_group_name_H-M   'P 1'
_cell_length_a   7.46060115
_cell_length_b   7.46060115
_cell_length_c   10.55088333
_cell_angle_alpha   90.00000000
_cell_angle_beta   90.00000000
_cell_angle_gamma   90.00000000
_symmetry_Int_Tables_number   1
_chemical_formula_structural   CrFeNi52
_chemical_formula_sum   'Cr1 Fe1 Ni52'
_cell_volume   587.26817467
_cell_formula_units_Z   1
loop_
 _symmetry_equiv_pos_site_id
 _symmetry_equiv_pos_as_xyz
  1  'x, y, z'
loop_
 _atom_site_type_symbol
 _atom_site_label
 _atom_site_symmetry_multiplicity
 _atom_site_fract_x
 _atom_site_fract_y
 _atom_site_fract_z
 _atom_site_occupancy
  Ni  Ni0  1  0.00084858  1.00001548  1.00010015  1
  Ni  Ni1  1  0.16696841  0.16715020  0.16725984  1
  Ni  Ni2  1  0.00086260  1.00000147  0.33406766  1
  Ni  Ni3  1  0.00069557  0.33400795  1.00032417  1
  Ni  Ni4  1  0.16724509  0.50052454  0.16726059  1
  Ni  Ni5  1  0.00224648  0.33401382  0.33407108  1
  Ni  Ni6  1  0.00054002  0.66727559  0.00044121  1
  Ni  Ni7  1  0.16724340  0.83362066  0.16703267  1
  Ni  Ni8  1  0.00054117  0.66727862  0.33371771  1
  Ni  Ni9  1  0.33358848  1.00032405  0.00044121  1
  Ni  Ni10  1  0.49951269  0.16604506  0.16618836  1
  Ni  Ni11  1  0.33358545  1.00032290  0.33371771  1
  Ni  Ni12  1  0.33375102  0.33369968  0.00067218  1
  Ni  Ni13  1  0.49924464  0.50161943  0.16619684  1
  Ni  Ni14  1  0.33223604  0.33369226  0.33371718  1
  Ni  Ni15  1  0.33359114  0.66727293  0.99973077  1
  Ni  Ni16  1  0.50033953  0.83361898  0.16726059  1
  Ni  Ni17  1  0.33358499  0.66727908  0.33443178  1
  Ni  Ni18  1  0.66685612  1.00016850  1.00032417  1
  Ni  Ni19  1  0.83482796  0.16603611  0.16617814  1
  Ni  Ni20  1  0.66685025  0.99861758  0.33407108  1
  Ni  Ni21  1  0.66685452  0.33400954  0.99989709  1
  Ni  Ni22  1  0.83481900  0.50135138  0.16618836  1
  Cr  Cr23  1  0.66691137  0.33395270  0.33400513  1
  Ni  Ni24  1  0.66716439  0.66711305  0.00067218  1
  Ni  Ni25  1  0.83371386  0.83389565  0.16725984  1
  Ni  Ni26  1  0.66717181  0.66862803  0.33371718  1
  Ni  Ni27  1  0.16709186  0.16714035  0.50019582  1
  Ni  Ni28  1  0.00114592  0.99971815  0.66713059  1
  Ni  Ni29  1  0.16708880  0.16725990  0.83384123  1
  Ni  Ni30  1  0.16702111  0.50030281  0.50025109  1
  Ni  Ni31  1  0.00098868  0.33430513  0.66690267  1
  Ni  Ni32  1  0.16701049  0.50018136  0.83379583  1
  Ni  Ni33  1  0.16702048  0.83384359  0.50047712  1
  Ni  Ni34  1  0.99979405  0.66727942  0.66713655  1
  Ni  Ni35  1  0.16700150  0.83386256  0.83380471  1
  Ni  Ni36  1  0.49942226  0.16609731  0.50123246  1
  Ni  Ni37  1  0.33358465  0.00107002  0.66713655  1
  Ni  Ni38  1  0.50042305  0.16707807  0.83384104  1
  Ni  Ni39  1  0.49944859  0.50141548  0.50133024  1
  Ni  Ni40  1  0.33375277  0.33298887  0.66689759  1
  Ni  Ni41  1  0.50049219  0.50037188  0.83378631  1
  Ni  Ni42  1  0.50056126  0.83384295  0.50025109  1
  Fe  Fe43  1  0.33353360  0.66733047  0.66724258  1
  Ni  Ni44  1  0.50068270  0.83385358  0.83379583  1
  Ni  Ni45  1  0.83480967  0.16605440  0.50160828  1
  Ni  Ni46  1  0.66655893  0.99987539  0.66690267  1
  Ni  Ni47  1  0.83378456  0.16707951  0.83349043  1
  Ni  Ni48  1  0.83476676  0.50144181  0.50123246  1
  Ni  Ni49  1  0.66656225  0.33430182  0.66732610  1
  Ni  Ni50  1  0.83378599  0.50044102  0.83384104  1
  Ni  Ni51  1  0.83372372  0.83377221  0.50019582  1
  Ni  Ni52  1  0.66787520  0.66711130  0.66689759  1
  Ni  Ni53  1  0.83360417  0.83377527  0.83384123  1
" 