8536,Ni96Fe2Cr1_0,-239.840677091791, 180.234391500899,Ni96Fe2Cr1,"# generated using pymatgen
 data_CrFeNi52
_symmetry_space_group_name_H-M   'P 1'
_cell_length_a   7.46060115
_cell_length_b   7.46060115
_cell_length_c   10.55088333
_cell_angle_alpha   90.00000000
_cell_angle_beta   90.00000000
_cell_angle_gamma   90.00000000
_symmetry_Int_Tables_number   1
_chemical_formula_structural   CrFeNi52
_chemical_formula_sum   'Cr1 Fe1 Ni52'
_cell_volume   587.26817467
_cell_formula_units_Z   1
loop_
 _symmetry_equiv_pos_site_id
 _symmetry_equiv_pos_as_xyz
  1  'x, y, z'
loop_
 _atom_site_type_symbol
 _atom_site_label
 _atom_site_symmetry_multiplicity
 _atom_site_fract_x
 _atom_site_fract_y
 _atom_site_fract_z
 _atom_site_occupancy
  Ni  Ni0  1  1.00030281  0.00050962  0.00061297  1
  Ni  Ni1  1  0.16727862  0.16698956  0.16714636  1
  Ni  Ni2  1  0.00052454  1.00028564  0.33360348  1
  Ni  Ni3  1  0.00144181  0.33276397  0.99963161  1
  Ni  Ni4  1  0.16862803  0.50035893  0.16714689  1
  Ni  Ni5  1  0.00135138  0.33271173  0.33467571  1
  Ni  Ni6  1  0.00141548  0.66808215  0.99953383  1
  Ni  Ni7  1  0.16727908  0.83394574  0.16643229  1
  Ni  Ni8  1  0.00161943  0.66828609  0.33466722  1
  Ni  Ni9  1  0.33384359  0.00051025  1.00038695  1
  Ni  Ni10  1  0.50000147  0.16666813  0.16679641  1
  Ni  Ni11  1  0.33362066  1.00028733  0.33383140  1
  Ni  Ni12  1  0.33377221  0.33380702  0.00066825  1
  Ni  Ni13  1  0.49861758  0.50068048  0.16679299  1
  Ni  Ni14  1  0.33389565  0.33381687  0.33360423  1
  Ni  Ni15  1  0.33384295  0.66696947  0.00061297  1
  Ni  Ni16  1  0.50032290  0.83394528  0.16714636  1
  Ni  Ni17  1  0.33361898  0.66719120  0.33360348  1
  Ni  Ni18  1  0.66714035  0.00043887  0.00066825  1
  Ni  Ni19  1  0.83401382  0.16528425  0.16679299  1
  Ni  Ni20  1  0.66715020  0.00056232  0.33360423  1
  Ni  Ni21  1  0.66605440  0.33272106  0.99925579  1
  Cr  Cr22  1  0.83395270  0.50061937  0.16685894  1
  Ni  Ni23  1  0.66603611  0.33270278  0.33468593  1
  Ni  Ni24  1  0.66609731  0.66810847  0.99963161  1
  Ni  Ni25  1  0.83369226  0.83529469  0.16714689  1
  Ni  Ni26  1  0.66604506  0.66801804  0.33467571  1
  Ni  Ni27  1  0.16727559  0.16699071  0.50042285  1
  Ni  Ni28  1  1.00018136  0.00052025  0.66706824  1
  Ni  Ni29  1  0.16727942  0.16773668  0.83372751  1
  Ni  Ni30  1  0.16711305  0.50036634  0.50019188  1
  Ni  Ni31  1  0.00044102  0.33374474  0.66702303  1
  Ni  Ni32  1  0.16711130  0.49965553  0.83396648  1
  Ni  Ni33  1  0.16727293  0.83393959  0.50113330  1
  Ni  Ni34  1  1.00037188  0.66703854  0.66707776  1
  Fe  Fe35  1  0.16733047  0.83399714  0.83362148  1
  Ni  Ni36  1  0.50001548  0.16668215  0.50076392  1
  Ni  Ni37  1  0.33386256  0.00052923  0.66705936  1
  Ni  Ni38  1  0.49971815  0.16638481  0.83373347  1
  Ni  Ni39  1  0.50016850  0.50067461  0.50053990  1
  Ni  Ni40  1  0.33377527  0.33392657  0.66702283  1
  Ni  Ni41  1  0.49987539  0.50097180  0.83396140  1
  Ni  Ni42  1  0.50032405  0.83394226  0.50042285  1
  Ni  Ni43  1  0.33385358  0.66684803  0.66706824  1
  Ni  Ni44  1  0.50107002  0.83394608  0.83372751  1
  Ni  Ni45  1  0.83400795  0.16683516  0.50053990  1
  Ni  Ni46  1  0.66725990  0.00044194  0.66702283  1
  Ni  Ni47  1  0.83430513  0.16654206  0.83396140  1
  Ni  Ni48  1  0.83400954  0.50067621  0.50096698  1
  Ni  Ni49  1  0.66707951  0.33374617  0.66737364  1
  Ni  Ni50  1  0.83430182  0.50096848  0.83353797  1
  Ni  Ni51  1  0.83369968  0.83377972  0.50019188  1
  Ni  Ni52  1  0.66707807  0.66710769  0.66702303  1
  Ni  Ni53  1  0.83298887  0.83377797  0.83396648  1
" 