3968,Ni96Fe2Cr1_10,-239.852743372738, 180.417087382797,Ni96Fe2Cr1,"# generated using pymatgen
 data_CrFeNi52
_symmetry_space_group_name_H-M   'P 1'
_cell_length_a   7.46235066
_cell_length_b   7.46235066
_cell_length_c   10.55335750
_cell_angle_alpha   90.00000000
_cell_angle_beta   90.00000000
_cell_angle_gamma   90.00000000
_symmetry_Int_Tables_number   1
_chemical_formula_structural   CrFeNi52
_chemical_formula_sum   'Cr1 Fe1 Ni52'
_cell_volume   587.68141379
_cell_formula_units_Z   1
loop_
 _symmetry_equiv_pos_site_id
 _symmetry_equiv_pos_as_xyz
  1  'x, y, z'
loop_
 _atom_site_type_symbol
 _atom_site_label
 _atom_site_symmetry_multiplicity
 _atom_site_fract_x
 _atom_site_fract_y
 _atom_site_fract_z
 _atom_site_occupancy
  Ni  Ni0  1  1.00029245  1.00028320  0.00034048  1
  Ni  Ni1  1  0.16693439  0.16702836  0.16702728  1
  Ni  Ni2  1  1.00010134  1.00028594  0.33385371  1
  Ni  Ni3  1  0.00031663  0.33364612  0.99984654  1
  Ni  Ni4  1  0.16675650  0.50029423  0.16721420  1
  Ni  Ni5  1  0.00114917  0.33281358  0.33330830  1
  Ni  Ni6  1  0.00031635  0.66701239  0.00033837  1
  Ni  Ni7  1  0.16697194  0.83362168  0.16702739  1
  Ni  Ni8  1  0.00115081  0.66783930  0.33281557  1
  Ni  Ni9  1  0.33342804  0.00053471  1.00008655  1
  Ni  Ni10  1  0.50034107  0.16699082  0.16702739  1
  Ni  Ni11  1  0.33342872  0.00053403  0.33386762  1
  Ni  Ni12  1  0.33367955  0.33367030  0.00034048  1
  Ni  Ni13  1  0.50051946  0.50033170  0.16721481  1
  Ni  Ni14  1  0.33367682  0.33386141  0.33385371  1
  Ni  Ni15  1  0.33342841  0.66673927  1.00008692  1
  Ni  Ni16  1  0.50034088  0.83362187  0.16702722  1
  Ni  Ni17  1  0.33342885  0.66654847  0.33410362  1
  Ni  Ni18  1  0.66722348  0.00053435  1.00008692  1
  Ni  Ni19  1  0.83366853  0.16720625  0.16721420  1
  Ni  Ni20  1  0.66741428  0.00053391  0.33410362  1
  Ni  Ni21  1  0.66695036  0.33364640  0.00033837  1
  Ni  Ni22  1  0.83366845  0.50029431  0.16683707  1
  Ni  Ni23  1  0.66612346  0.33281194  0.33281557  1
  Ni  Ni24  1  0.66719922  0.66676354  1.00008732  1
  Ni  Ni25  1  0.83363105  0.83344329  0.16721481  1
  Ni  Ni26  1  0.66636266  0.66760009  0.33305729  1
  Ni  Ni27  1  0.16721872  0.16674403  0.50022371  1
  Ni  Ni28  1  1.00010167  0.99965760  0.66675373  1
  Ni  Ni29  1  0.16705280  0.16690995  0.83369160  1
  Ni  Ni30  1  0.16877792  0.50041684  0.50022068  1
  Fe  Fe31  1  0.00119368  0.33276908  0.66784604  1
  Ni  Ni32  1  0.16687570  0.50041283  0.83350554  1
  Ni  Ni33  1  0.16713640  0.83378041  0.50028737  1
  Ni  Ni34  1  0.00114857  0.66847930  0.66779546  1
  Ni  Ni35  1  0.16697407  0.83361673  0.83363128  1
  Ni  Ni36  1  0.50018235  0.16682635  0.50028737  1
  Ni  Ni37  1  0.33319781  0.00076494  0.66698969  1
  Ni  Ni38  1  0.50034603  0.16698868  0.83363128  1
  Ni  Ni39  1  0.49862928  0.50033074  0.50028847  1
  Ni  Ni40  1  0.33430515  0.33386108  0.66675373  1
  Ni  Ni41  1  0.50052214  0.50033342  0.83344404  1
  Ni  Ni42  1  0.50017690  0.83378585  0.50035327  1
  Ni  Ni43  1  0.33319481  0.66631591  0.66675394  1
  Ni  Ni44  1  0.50034095  0.83362180  0.83356317  1
  Ni  Ni45  1  0.83354591  0.16518483  0.50022068  1
  Ni  Ni46  1  0.66764684  0.00076794  0.66675394  1
  Ni  Ni47  1  0.83354992  0.16708705  0.83350554  1
  Cr  Cr48  1  0.83347657  0.50048619  0.50015075  1
  Ni  Ni49  1  0.66548346  0.33281418  0.66779546  1
  Ni  Ni50  1  0.83354890  0.50041385  0.83388376  1
  Ni  Ni51  1  0.83363202  0.83533347  0.50028847  1
  Ni  Ni52  1  0.66660357  0.66735918  0.66779598  1
  Ni  Ni53  1  0.83362933  0.83344061  0.83344404  1
" 