1509,Ni96Fe3Cr0_11,-239.066402920643, 178.035597255971,Ni96Fe3Cr0,"# generated using pymatgen
 data_Cr2FeNi51
_symmetry_space_group_name_H-M   'P 1'
_cell_length_a   7.46120254
_cell_length_b   7.46120254
_cell_length_c   10.55173383
_cell_angle_alpha   90.00000000
_cell_angle_beta   90.00000000
_cell_angle_gamma   90.00000000
_symmetry_Int_Tables_number   1
_chemical_formula_structural   Cr2FeNi51
_chemical_formula_sum   'Cr2 Fe1 Ni51'
_cell_volume   587.41020377
_cell_formula_units_Z   1
loop_
 _symmetry_equiv_pos_site_id
 _symmetry_equiv_pos_as_xyz
  1  'x, y, z'
loop_
 _atom_site_type_symbol
 _atom_site_label
 _atom_site_symmetry_multiplicity
 _atom_site_fract_x
 _atom_site_fract_y
 _atom_site_fract_z
 _atom_site_occupancy
  Ni  Ni0  1  1.00007546  0.00064226  0.00051478  1
  Ni  Ni1  1  0.16717357  0.16691072  0.16675664  1
  Ni  Ni2  1  0.99992806  0.00092891  0.33389671  1
  Ni  Ni3  1  0.99947068  0.33268107  0.00122399  1
  Ni  Ni4  1  0.16701842  0.50041021  0.16741457  1
  Ni  Ni5  1  0.00224486  0.33268405  0.33282785  1
  Ni  Ni6  1  0.99912794  0.66785421  0.00159074  1
  Ni  Ni7  1  0.16720659  0.83385579  0.16707329  1
  Ni  Ni8  1  0.00084482  0.66754224  0.33282508  1
  Ni  Ni9  1  0.33389766  0.00064478  0.00051824  1
  Ni  Ni10  1  0.50031436  0.16668865  0.16703144  1
  Ni  Ni11  1  0.33409766  0.00090943  0.33366446  1
  Ni  Ni12  1  0.33465260  0.33283731  0.00121514  1
  Ni  Ni13  1  0.50030408  0.50047296  0.16702063  1
  Ni  Ni14  1  0.33293975  0.33378603  0.33389815  1
  Ni  Ni15  1  0.33501085  0.66769568  0.00159867  1
  Ni  Ni16  1  0.50037193  0.83398793  0.16698042  1
  Ni  Ni17  1  0.33427421  0.66646406  0.33389681  1
  Ni  Ni18  1  0.66720392  1.00030548  1.00038887  1
  Ni  Ni19  1  0.83365715  0.16684660  0.16725054  1
  Ni  Ni20  1  0.66713404  0.99959538  0.33389714  1
  Ni  Ni21  1  0.66704557  0.33378384  0.00085322  1
  Ni  Ni22  1  0.83383730  0.50048181  0.16657894  1
  Fe  Fe23  1  0.66611653  0.33291834  0.33286975  1
  Ni  Ni24  1  0.66704735  0.66706571  1.00017027  1
  Ni  Ni25  1  0.83359508  0.83383610  0.16720750  1
  Ni  Ni26  1  0.66602744  0.66878640  0.33282187  1
  Ni  Ni27  1  0.16719516  0.16689933  0.50066355  1
  Ni  Ni28  1  1.00014445  0.00063935  0.66676138  1
  Ni  Ni29  1  0.16720336  0.16520101  0.83374288  1
  Ni  Ni30  1  0.16856911  0.50039287  0.50022927  1
  Ni  Ni31  1  0.00044510  0.33166585  0.66708756  1
  Cr  Cr32  1  0.16707410  0.50049483  0.83351339  1
  Ni  Ni33  1  0.16723019  0.83387825  0.50036126  1
  Ni  Ni34  1  1.00016937  0.66888416  0.66678536  1
  Ni  Ni35  1  0.16720400  0.83546807  0.83374425  1
  Ni  Ni36  1  0.50027394  0.16664366  0.50040763  1
  Ni  Ni37  1  0.33389053  0.00064014  0.66699545  1
  Ni  Ni38  1  0.50054833  0.16686055  0.83374656  1
  Ni  Ni39  1  0.49865572  0.50050333  0.50067634  1
  Ni  Ni40  1  0.33467991  0.33278185  0.66604383  1
  Ni  Ni41  1  0.50215600  0.50026294  0.83350707  1
  Ni  Ni42  1  0.50035573  0.83401767  0.50043629  1
  Ni  Ni43  1  0.33501657  0.66775274  0.66568461  1
  Ni  Ni44  1  0.50030495  0.83405100  0.83374579  1
  Ni  Ni45  1  0.83368686  0.16522664  0.50043113  1
  Ni  Ni46  1  0.66713871  1.00032295  0.66686328  1
  Ni  Ni47  1  0.83342551  0.16703340  0.83351809  1
  Cr  Cr48  1  0.83388658  0.50056885  0.50073398  1
  Ni  Ni49  1  0.66601455  0.33277850  0.66745283  1
  Ni  Ni50  1  0.83201275  0.50026338  0.83394741  1
  Ni  Ni51  1  0.83358009  0.83539430  0.50043210  1
  Ni  Ni52  1  0.66600386  0.66803510  0.66814056  1
  Ni  Ni53  1  0.83366836  0.83387499  0.83351411  1
" 