1517,Ni96Fe2Cr0_2,-239.842908793051, 180.359577977072,Ni96Fe2Cr0,"# generated using pymatgen
 data_CrFeNi52
_symmetry_space_group_name_H-M   'P 1'
_cell_length_a   7.46224677
_cell_length_b   7.46224677
_cell_length_c   10.55321059
_cell_angle_alpha   90.00000000
_cell_angle_beta   90.00000000
_cell_angle_gamma   90.00000000
_symmetry_Int_Tables_number   1
_chemical_formula_structural   CrFeNi52
_chemical_formula_sum   'Cr1 Fe1 Ni52'
_cell_volume   587.65687005
_cell_formula_units_Z   1
loop_
 _symmetry_equiv_pos_site_id
 _symmetry_equiv_pos_as_xyz
  1  'x, y, z'
loop_
 _atom_site_type_symbol
 _atom_site_label
 _atom_site_symmetry_multiplicity
 _atom_site_fract_x
 _atom_site_fract_y
 _atom_site_fract_z
 _atom_site_occupancy
  Ni  Ni0  1  0.00054420  0.00032168  1.00005616  1
  Ni  Ni1  1  0.16721065  0.16742687  0.16652084  1
  Ni  Ni2  1  0.00033910  0.00032168  0.33365501  1
  Ni  Ni3  1  0.99949129  0.33279574  0.00117382  1
  Ni  Ni4  1  0.16696326  0.50032168  0.16715238  1
  Ni  Ni5  1  1.00032052  0.33364075  0.33365501  1
  Ni  Ni6  1  0.99949129  0.66784761  0.00117382  1
  Ni  Ni7  1  0.16721065  0.83321648  0.16652084  1
  Ni  Ni8  1  1.00032052  0.66700260  0.33365501  1
  Ni  Ni9  1  0.33341454  0.00032168  1.00011346  1
  Ni  Ni10  1  0.50028700  0.16699569  0.16696056  1
  Ni  Ni11  1  0.33362453  0.00032168  0.33365501  1
  Ni  Ni12  1  0.33439286  0.33270794  0.00124673  1
  Ni  Ni13  1  0.50010597  0.50032168  0.16627811  1
  Ni  Ni14  1  0.33367243  0.33367009  0.33365501  1
  Ni  Ni15  1  0.33439286  0.66793541  0.00124673  1
  Ni  Ni16  1  0.50028700  0.83364766  0.16696056  1
  Ni  Ni17  1  0.33367243  0.66697326  0.33365501  1
  Ni  Ni18  1  0.66700758  0.00032168  0.00035522  1
  Ni  Ni19  1  0.83346641  0.16724516  0.16670961  1
  Ni  Ni20  1  0.66700142  0.00032168  0.33365501  1
  Ni  Ni21  1  0.66708983  0.33377818  1.00018054  1
  Ni  Ni22  1  0.83390033  0.50032168  0.16677371  1
  Ni  Ni23  1  0.66697204  0.33368872  0.33365501  1
  Ni  Ni24  1  0.66708983  0.66686517  1.00018054  1
  Ni  Ni25  1  0.83346641  0.83339819  0.16670961  1
  Ni  Ni26  1  0.66697204  0.66695463  0.33365501  1
  Ni  Ni27  1  0.16721065  0.16742687  0.50078917  1
  Ni  Ni28  1  0.00054420  0.00032168  0.66725385  1
  Ni  Ni29  1  0.16744953  0.16571590  0.83365501  1
  Ni  Ni30  1  0.16696326  0.50032168  0.50015764  1
  Ni  Ni31  1  0.99949129  0.33279574  0.66613619  1
  Cr  Cr32  1  0.16629945  0.50032168  0.83365501  1
  Ni  Ni33  1  0.16721065  0.83321648  0.50078917  1
  Ni  Ni34  1  0.99949129  0.66784761  0.66613619  1
  Ni  Ni35  1  0.16744953  0.83492745  0.83365501  1
  Ni  Ni36  1  0.50028700  0.16699569  0.50034946  1
  Ni  Ni37  1  0.33341454  0.00032168  0.66719655  1
  Ni  Ni38  1  0.50046158  0.16618594  0.83365501  1
  Ni  Ni39  1  0.50010597  0.50032168  0.50103191  1
  Ni  Ni40  1  0.33439286  0.33270794  0.66606328  1
  Fe  Fe41  1  0.50203503  0.50032168  0.83365501  1
  Ni  Ni42  1  0.50028700  0.83364766  0.50034946  1
  Ni  Ni43  1  0.33439286  0.66793541  0.66606328  1
  Ni  Ni44  1  0.50046158  0.83445741  0.83365501  1
  Ni  Ni45  1  0.83346641  0.16724516  0.50060041  1
  Ni  Ni46  1  0.66700758  0.00032168  0.66695479  1
  Ni  Ni47  1  0.83306084  0.16730531  0.83365501  1
  Ni  Ni48  1  0.83390033  0.50032168  0.50053631  1
  Ni  Ni49  1  0.66708983  0.33377818  0.66712948  1
  Ni  Ni50  1  0.83257319  0.50032168  0.83365501  1
  Ni  Ni51  1  0.83346641  0.83339819  0.50060041  1
  Ni  Ni52  1  0.66708983  0.66686517  0.66712948  1
  Ni  Ni53  1  0.83306084  0.83333804  0.83365501  1
" 