4780,Ni96Fe2Cr1_4,-239.851181364697, 180.28610580664,Ni96Fe2Cr1,"# generated using pymatgen
 data_CrFeNi52
_symmetry_space_group_name_H-M   'P 1'
_cell_length_a   7.46066161
_cell_length_b   7.46066161
_cell_length_c   10.55096883
_cell_angle_alpha   90.00000000
_cell_angle_beta   90.00000000
_cell_angle_gamma   90.00000000
_symmetry_Int_Tables_number   1
_chemical_formula_structural   CrFeNi52
_chemical_formula_sum   'Cr1 Fe1 Ni52'
_cell_volume   587.28245228
_cell_formula_units_Z   1
loop_
 _symmetry_equiv_pos_site_id
 _symmetry_equiv_pos_as_xyz
  1  'x, y, z'
loop_
 _atom_site_type_symbol
 _atom_site_label
 _atom_site_symmetry_multiplicity
 _atom_site_fract_x
 _atom_site_fract_y
 _atom_site_fract_z
 _atom_site_occupancy
  Ni  Ni0  1  1.00034214  1.00034735  0.00066804  1
  Ni  Ni1  1  0.16814606  0.16604323  0.16553039  1
  Ni  Ni2  1  0.00056250  0.99896631  0.33376131  1
  Ni  Ni3  1  1.00034753  0.33384176  1.00022927  1
  Ni  Ni4  1  0.16814502  0.50155639  0.16623384  1
  Cr  Cr5  1  0.00057116  0.33361813  0.33376131  1
  Ni  Ni6  1  1.00041881  0.66710046  0.00070777  1
  Ni  Ni7  1  0.16702745  0.83369578  0.16730663  1
  Ni  Ni8  1  1.00030363  0.66868999  0.33376131  1
  Ni  Ni9  1  0.33400911  1.00018018  0.00043306  1
  Ni  Ni10  1  0.50049351  0.16716184  0.16730663  1
  Ni  Ni11  1  0.33380496  1.00038433  0.33376131  1
  Ni  Ni12  1  0.33384194  0.33384715  0.00066804  1
  Ni  Ni13  1  0.50017418  0.50011322  0.16696288  1
  Ni  Ni14  1  0.33522298  0.33362679  0.33376131  1
  Ni  Ni15  1  0.33393676  0.66726089  0.00047645  1
  Ni  Ni16  1  0.50017892  0.83401037  0.16672880  1
  Ni  Ni17  1  0.33406603  0.66727431  0.33376131  1
  Ni  Ni18  1  0.66692840  1.00025253  0.00047645  1
  Ni  Ni19  1  0.83263290  0.16604427  0.16623384  1
  Ni  Ni20  1  0.66691498  1.00012326  0.33376131  1
  Ni  Ni21  1  0.66708883  0.33377048  0.00070777  1
  Ni  Ni22  1  0.83296064  0.50122865  0.16588131  1
  Ni  Ni23  1  0.66549930  0.33388566  0.33376131  1
  Ni  Ni24  1  0.66693041  0.66725888  1.00014500  1
  Ni  Ni25  1  0.83407607  0.83401511  0.16696288  1
  Ni  Ni26  1  0.66691432  0.66727497  0.33376131  1
  Ni  Ni27  1  0.16814606  0.16604323  0.50199223  1
  Ni  Ni28  1  1.00034214  1.00034735  0.66685459  1
  Fe  Fe29  1  0.16715286  0.16703643  0.83376131  1
  Ni  Ni30  1  0.16814502  0.50155639  0.50128878  1
  Ni  Ni31  1  1.00034753  0.33384176  0.66729335  1
  Ni  Ni32  1  0.16711015  0.50124796  0.83376131  1
  Ni  Ni33  1  0.16702745  0.83369578  0.50021599  1
  Ni  Ni34  1  1.00041881  0.66710046  0.66681485  1
  Ni  Ni35  1  0.16693786  0.83295731  0.83376131  1
  Ni  Ni36  1  0.50049351  0.16716184  0.50021599  1
  Ni  Ni37  1  0.33400911  1.00018018  0.66708957  1
  Ni  Ni38  1  0.50123198  0.16725143  0.83376131  1
  Ni  Ni39  1  0.50017418  0.50011322  0.50055975  1
  Ni  Ni40  1  0.33384194  0.33384715  0.66685459  1
  Ni  Ni41  1  0.49988513  0.49972812  0.83376131  1
  Ni  Ni42  1  0.50017892  0.83401037  0.50079382  1
  Ni  Ni43  1  0.33393676  0.66726089  0.66704617  1
  Ni  Ni44  1  0.49988475  0.83430454  0.83376131  1
  Ni  Ni45  1  0.83263290  0.16604427  0.50128878  1
  Ni  Ni46  1  0.66692840  1.00025253  0.66704617  1
  Ni  Ni47  1  0.83294133  0.16707914  0.83376131  1
  Ni  Ni48  1  0.83296064  0.50122865  0.50164131  1
  Ni  Ni49  1  0.66708883  0.33377048  0.66681485  1
  Ni  Ni50  1  0.83428838  0.49990091  0.83376131  1
  Ni  Ni51  1  0.83407607  0.83401511  0.50055975  1
  Ni  Ni52  1  0.66693041  0.66725888  0.66737762  1
  Ni  Ni53  1  0.83446117  0.83430416  0.83376131  1
" 