6286,Ni96Fe3Cr0_8,-239.051501672738, 178.188457415473,Ni96Fe3Cr0,"# generated using pymatgen
 data_Cr2FeNi51
_symmetry_space_group_name_H-M   'P 1'
_cell_length_a   7.46158767
_cell_length_b   7.46158767
_cell_length_c   10.55227847
_cell_angle_alpha   90.00000000
_cell_angle_beta   90.00000000
_cell_angle_gamma   90.00000000
_symmetry_Int_Tables_number   1
_chemical_formula_structural   Cr2FeNi51
_chemical_formula_sum   'Cr2 Fe1 Ni51'
_cell_volume   587.50116925
_cell_formula_units_Z   1
loop_
 _symmetry_equiv_pos_site_id
 _symmetry_equiv_pos_as_xyz
  1  'x, y, z'
loop_
 _atom_site_type_symbol
 _atom_site_label
 _atom_site_symmetry_multiplicity
 _atom_site_fract_x
 _atom_site_fract_y
 _atom_site_fract_z
 _atom_site_occupancy
  Cr  Cr0  1  0.00036587  0.00044285  0.99976953  1
  Ni  Ni1  1  0.16801825  0.16800139  0.16778845  1
  Ni  Ni2  1  0.00036587  0.00052272  0.33461975  1
  Ni  Ni3  1  0.00036587  0.33533708  1.00022529  1
  Ni  Ni4  1  0.16691713  0.50052635  0.16688279  1
  Ni  Ni5  1  0.00036587  0.33360418  0.33344227  1
  Ni  Ni6  1  0.00036587  0.66531086  0.00045941  1
  Ni  Ni7  1  0.16785139  0.83255974  0.16803000  1
  Ni  Ni8  1  0.00036587  0.66697166  0.33344737  1
  Ni  Ni9  1  0.33433142  0.99927303  0.00134030  1
  Ni  Ni10  1  0.50036587  0.16708812  0.16708005  1
  Ni  Ni11  1  0.33374444  1.00035041  0.33344433  1
  Ni  Ni12  1  0.33251492  0.33474228  0.00103002  1
  Ni  Ni13  1  0.50036587  0.50034817  0.16687557  1
  Ni  Ni14  1  0.33358784  0.33362074  0.33403068  1
  Ni  Ni15  1  0.33370328  0.66709969  0.99987647  1
  Ni  Ni16  1  0.50036587  0.83366705  0.16663240  1
  Ni  Ni17  1  0.33376142  0.66712768  0.33402878  1
  Ni  Ni18  1  0.66640032  0.99927303  0.00134030  1
  Ni  Ni19  1  0.83271349  0.16800139  0.16778845  1
  Ni  Ni20  1  0.66698730  1.00035041  0.33344433  1
  Ni  Ni21  1  0.66821682  0.33474228  0.00103002  1
  Ni  Ni22  1  0.83381461  0.50052635  0.16688279  1
  Ni  Ni23  1  0.66714390  0.33362074  0.33403068  1
  Ni  Ni24  1  0.66702846  0.66709969  0.99987647  1
  Ni  Ni25  1  0.83288035  0.83255974  0.16803000  1
  Ni  Ni26  1  0.66697032  0.66712768  0.33402878  1
  Ni  Ni27  1  0.16716892  0.16716431  0.50051200  1
  Fe  Fe28  1  0.00036587  1.00016207  0.66651454  1
  Ni  Ni29  1  0.16641832  0.16809603  0.83274221  1
  Ni  Ni30  1  0.16672827  0.50053506  0.50027149  1
  Ni  Ni31  1  0.00036587  0.33436115  0.66742702  1
  Ni  Ni32  1  0.16678370  0.50055404  0.83395133  1
  Ni  Ni33  1  0.16703533  0.83338000  0.50025745  1
  Ni  Ni34  1  0.00036587  0.66617471  0.66718036  1
  Ni  Ni35  1  0.16794322  0.83240627  0.83278755  1
  Ni  Ni36  1  0.50036587  0.16688779  0.50005156  1
  Ni  Ni37  1  0.33343544  0.99932750  0.66633632  1
  Cr  Cr38  1  0.50036587  0.16726257  0.83427529  1
  Ni  Ni39  1  0.50036587  0.50036093  0.50083541  1
  Ni  Ni40  1  0.33222714  0.33437687  0.66607220  1
  Ni  Ni41  1  0.50036587  0.50208761  0.83337305  1
  Ni  Ni42  1  0.50036587  0.83384433  0.50049560  1
  Ni  Ni43  1  0.33337410  0.66743466  0.66717577  1
  Ni  Ni44  1  0.50036587  0.83217105  0.83393626  1
  Ni  Ni45  1  0.83356282  0.16716431  0.50051200  1
  Ni  Ni46  1  0.66729630  0.99932750  0.66633632  1
  Ni  Ni47  1  0.83431342  0.16809603  0.83274221  1
  Ni  Ni48  1  0.83400347  0.50053506  0.50027149  1
  Ni  Ni49  1  0.66850460  0.33437687  0.66607220  1
  Ni  Ni50  1  0.83394804  0.50055404  0.83395133  1
  Ni  Ni51  1  0.83369641  0.83338000  0.50025745  1
  Ni  Ni52  1  0.66735764  0.66743466  0.66717577  1
  Ni  Ni53  1  0.83278852  0.83240627  0.83278755  1
" 