2561,Ni96Fe2Cr0_6,-239.852743372738, 180.417089240279,Ni96Fe2Cr0,"# generated using pymatgen
 data_CrFeNi52
_symmetry_space_group_name_H-M   'P 1'
_cell_length_a   7.46235066
_cell_length_b   7.46235066
_cell_length_c   10.55335750
_cell_angle_alpha   90.00000000
_cell_angle_beta   90.00000000
_cell_angle_gamma   90.00000000
_symmetry_Int_Tables_number   1
_chemical_formula_structural   CrFeNi52
_chemical_formula_sum   'Cr1 Fe1 Ni52'
_cell_volume   587.68141379
_cell_formula_units_Z   1
loop_
 _symmetry_equiv_pos_site_id
 _symmetry_equiv_pos_as_xyz
  1  'x, y, z'
loop_
 _atom_site_type_symbol
 _atom_site_label
 _atom_site_symmetry_multiplicity
 _atom_site_fract_x
 _atom_site_fract_y
 _atom_site_fract_z
 _atom_site_occupancy
  Ni  Ni0  1  0.00044707  1.00015969  1.00028737  1
  Ni  Ni1  1  0.16632427  0.16719442  0.16675373  1
  Ni  Ni2  1  1.00028339  0.00032202  0.33363128  1
  Ni  Ni3  1  0.00200014  0.33366407  1.00028847  1
  Ni  Ni4  1  0.16743461  0.49964924  0.16675394  1
  Ni  Ni5  1  1.00010728  0.33366676  0.33344404  1
  Ni  Ni6  1  0.00045252  0.66711919  0.00035327  1
  Ni  Ni7  1  0.16743161  0.83409828  0.16698969  1
  Ni  Ni8  1  1.00028847  0.66695513  0.33356317  1
  Ni  Ni9  1  0.33341070  1.00007736  1.00022371  1
  Fe  Fe10  1  0.49943574  0.16610241  0.16784604  1
  Ni  Ni11  1  0.33357662  1.00024329  0.33369160  1
  Ni  Ni12  1  0.33185150  0.33375018  1.00022068  1
  Ni  Ni13  1  0.49948085  0.50181263  0.16779546  1
  Ni  Ni14  1  0.33375372  0.33374616  0.33350554  1
  Ni  Ni15  1  0.33349302  0.66711374  1.00028737  1
  Ni  Ni16  1  0.50052775  0.83299094  0.16675373  1
  Ni  Ni17  1  0.33365535  0.66695006  0.33363128  1
  Ni  Ni18  1  0.66708351  0.99851816  1.00022068  1
  Ni  Ni19  1  0.83514596  0.16614752  0.16779546  1
  Ni  Ni20  1  0.66707950  0.00042038  0.33350554  1
  Cr  Cr21  1  0.66715285  0.33381952  1.00015075  1
  Ni  Ni22  1  0.83402585  0.50069251  0.16779598  1
  Ni  Ni23  1  0.66708052  0.33374719  0.33388376  1
  Ni  Ni24  1  0.66699740  0.66866681  1.00028847  1
  Ni  Ni25  1  0.83298258  0.83410127  0.16675394  1
  Ni  Ni26  1  0.66700009  0.66677395  0.33344404  1
  Ni  Ni27  1  0.16694987  0.16700364  0.50034048  1
  Ni  Ni28  1  1.00028835  0.00032415  0.66702739  1
  Ni  Ni29  1  0.16695260  0.16719475  0.83385371  1
  Ni  Ni30  1  0.16720101  0.50007261  0.50008692  1
  Ni  Ni31  1  1.00010996  0.33366503  0.66721481  1
  Ni  Ni32  1  0.16720057  0.49988181  0.83410362  1
  Ni  Ni33  1  0.16720138  0.83386805  0.50008655  1
  Ni  Ni34  1  1.00028854  0.66695520  0.66702722  1
  Ni  Ni35  1  0.16720070  0.83386736  0.83386762  1
  Ni  Ni36  1  0.50031279  0.16697946  0.49984654  1
  Ni  Ni37  1  0.33369503  0.00036169  0.66702728  1
  Ni  Ni38  1  0.49948025  0.16614691  0.83330830  1
  Ni  Ni39  1  0.50031307  0.50034572  0.50033837  1
  Ni  Ni40  1  0.33387292  0.33362756  0.66721420  1
  Ni  Ni41  1  0.49947861  0.50117263  0.83281557  1
  Ni  Ni42  1  0.50033697  0.83361654  0.50034048  1
  Ni  Ni43  1  0.33365748  0.66695502  0.66702739  1
  Ni  Ni44  1  0.50052808  0.83361927  0.83385371  1
  Ni  Ni45  1  0.83367906  0.16697973  0.50033837  1
  Ni  Ni46  1  0.66696089  0.00053958  0.66721420  1
  Ni  Ni47  1  0.83450596  0.16614527  0.83281557  1
  Ni  Ni48  1  0.83343020  0.50009687  0.50008732  1
  Ni  Ni49  1  0.66696097  0.33362764  0.66683707  1
  Ni  Ni50  1  0.83426676  0.50093342  0.83305729  1
  Ni  Ni51  1  0.83340594  0.83386768  0.50008692  1
  Ni  Ni52  1  0.66699837  0.66677663  0.66721481  1
  Ni  Ni53  1  0.83321514  0.83386724  0.83410362  1
" 