5609,Ni96Fe2Cr1_8,-239.833373914862, 180.475841229831,Ni96Fe2Cr1,"# generated using pymatgen
 data_CrFeNi52
_symmetry_space_group_name_H-M   'P 1'
_cell_length_a   7.46098754
_cell_length_b   7.46098754
_cell_length_c   10.55142977
_cell_angle_alpha   90.00000000
_cell_angle_beta   90.00000000
_cell_angle_gamma   90.00000000
_symmetry_Int_Tables_number   1
_chemical_formula_structural   CrFeNi52
_chemical_formula_sum   'Cr1 Fe1 Ni52'
_cell_volume   587.35942484
_cell_formula_units_Z   1
loop_
 _symmetry_equiv_pos_site_id
 _symmetry_equiv_pos_as_xyz
  1  'x, y, z'
loop_
 _atom_site_type_symbol
 _atom_site_label
 _atom_site_symmetry_multiplicity
 _atom_site_fract_x
 _atom_site_fract_y
 _atom_site_fract_z
 _atom_site_occupancy
  Ni  Ni0  1  0.00041568  0.00040612  1.00027882  1
  Ni  Ni1  1  0.16682621  0.16716674  0.16677376  1
  Ni  Ni2  1  0.00051563  0.00040612  0.33394912  1
  Ni  Ni3  1  0.00068097  0.33377458  0.00049374  1
  Ni  Ni4  1  0.16713674  0.50040612  0.16711219  1
  Ni  Ni5  1  0.00043205  0.33403223  0.33371546  1
  Ni  Ni6  1  0.00068097  0.66703765  0.00049374  1
  Ni  Ni7  1  0.16682621  0.83364549  0.16677376  1
  Ni  Ni8  1  0.00043205  0.66678001  0.33371546  1
  Ni  Ni9  1  0.33374683  0.00040612  0.99994689  1
  Ni  Ni10  1  0.50063720  0.16733643  0.16677294  1
  Ni  Ni11  1  0.33375437  0.00040612  0.33395299  1
  Ni  Ni12  1  0.33357302  0.33388601  0.00050005  1
  Ni  Ni13  1  0.50049145  0.50040612  0.16711485  1
  Ni  Ni14  1  0.33357815  0.33377874  0.33371273  1
  Ni  Ni15  1  0.33357302  0.66692622  0.00050005  1
  Ni  Ni16  1  0.50063720  0.83347580  0.16677294  1
  Ni  Ni17  1  0.33357815  0.66703349  0.33371273  1
  Ni  Ni18  1  0.66706206  0.00040612  0.00070665  1
  Ni  Ni19  1  0.83375543  0.16702342  0.16711354  1
  Ni  Ni20  1  0.66695085  0.00040612  0.33351720  1
  Ni  Ni21  1  0.66698085  0.33364196  1.00024333  1
  Ni  Ni22  1  0.83358742  0.50040612  0.16641030  1
  Ni  Ni23  1  0.66720588  0.33385933  0.33395171  1
  Ni  Ni24  1  0.66698085  0.66717028  1.00024333  1
  Ni  Ni25  1  0.83375543  0.83378882  0.16711354  1
  Ni  Ni26  1  0.66720588  0.66695290  0.33395171  1
  Ni  Ni27  1  0.16682743  0.16724769  0.50088133  1
  Ni  Ni28  1  0.00196251  0.00040612  0.66700893  1
  Ni  Ni29  1  0.16652688  0.16755062  0.83357096  1
  Ni  Ni30  1  0.16714230  0.50040612  0.50029901  1
  Ni  Ni31  1  0.00065708  0.33385365  0.66705609  1
  Ni  Ni32  1  0.16792341  0.50040612  0.83380178  1
  Ni  Ni33  1  0.16682743  0.83356454  0.50088133  1
  Ni  Ni34  1  0.00065708  0.66695859  0.66705609  1
  Ni  Ni35  1  0.16652688  0.83326162  0.83357096  1
  Ni  Ni36  1  0.49957354  0.16840084  0.49976223  1
  Ni  Ni37  1  0.33208655  0.00040612  0.66732656  1
  Ni  Ni38  1  0.49991757  0.16864615  0.83463622  1
  Ni  Ni39  1  0.50040134  0.50040612  0.50052710  1
  Ni  Ni40  1  0.33356095  0.33390277  0.66699807  1
  Ni  Ni41  1  0.49974208  0.50040612  0.83356791  1
  Ni  Ni42  1  0.49957354  0.83241140  0.49976223  1
  Ni  Ni43  1  0.33356095  0.66690947  0.66699807  1
  Ni  Ni44  1  0.49991757  0.83216608  0.83463622  1
  Ni  Ni45  1  0.83479772  0.16806713  0.49944484  1
  Cr  Cr46  1  0.66677332  0.00040612  0.66667819  1
  Ni  Ni47  1  0.83474577  0.16731056  0.83461229  1
  Ni  Ni48  1  0.83366663  0.50040612  0.50123364  1
  Ni  Ni49  1  0.66704109  0.33530977  0.66709520  1
  Fe  Fe50  1  0.83393560  0.50040612  0.83382923  1
  Ni  Ni51  1  0.83479772  0.83274510  0.49944484  1
  Ni  Ni52  1  0.66704109  0.66550246  0.66709520  1
  Ni  Ni53  1  0.83474577  0.83350167  0.83461229  1
" 