4811,Ni96Fe2Cr0_7,-239.852729207771, 180.418995669817,Ni96Fe2Cr0,"# generated using pymatgen
 data_CrFeNi52
_symmetry_space_group_name_H-M   'P 1'
_cell_length_a   7.46072985
_cell_length_b   7.46072985
_cell_length_c   10.55106534
_cell_angle_alpha   90.00000000
_cell_angle_beta   90.00000000
_cell_angle_gamma   90.00000000
_symmetry_Int_Tables_number   1
_chemical_formula_structural   CrFeNi52
_chemical_formula_sum   'Cr1 Fe1 Ni52'
_cell_volume   587.29856742
_cell_formula_units_Z   1
loop_
 _symmetry_equiv_pos_site_id
 _symmetry_equiv_pos_as_xyz
  1  'x, y, z'
loop_
 _atom_site_type_symbol
 _atom_site_label
 _atom_site_symmetry_multiplicity
 _atom_site_fract_x
 _atom_site_fract_y
 _atom_site_fract_z
 _atom_site_occupancy
  Ni  Ni0  1  0.99885770  0.00198910  0.00133275  1
  Ni  Ni1  1  0.16709007  0.16704596  0.16694665  1
  Ni  Ni2  1  1.00016140  0.00068540  0.33346098  1
  Ni  Ni3  1  0.00131623  0.33375673  1.00024189  1
  Ni  Ni4  1  0.16709007  0.50046751  0.16694665  1
  Ni  Ni5  1  0.00063015  0.33375673  0.33379887  1
  Ni  Ni6  1  0.99885770  0.66552437  0.00133275  1
  Ni  Ni7  1  0.16709007  0.83375673  0.16707758  1
  Ni  Ni8  1  1.00016140  0.66682807  0.33346098  1
  Ni  Ni9  1  0.33532243  0.00198910  0.00133275  1
  Ni  Ni10  1  0.50047791  0.16714457  0.16714521  1
  Ni  Ni11  1  0.33401873  0.00068540  0.33346098  1
  Ni  Ni12  1  0.33286391  0.33375673  1.00024189  1
  Ni  Ni13  1  0.50047791  0.50036890  0.16714521  1
  Ni  Ni14  1  0.33354999  0.33375673  0.33379887  1
  Ni  Ni15  1  0.33532243  0.66552437  0.00133275  1
  Ni  Ni16  1  0.50037929  0.83375673  0.16694665  1
  Ni  Ni17  1  0.33401873  0.66682807  0.33346098  1
  Ni  Ni18  1  0.66709007  0.99953057  1.00024189  1
  Ni  Ni19  1  0.83370223  0.16714457  0.16714521  1
  Ni  Ni20  1  0.66709007  1.00021665  0.33379887  1
  Fe  Fe21  1  0.66709007  0.33375673  0.00051015  1
  Ni  Ni22  1  0.83370223  0.50036890  0.16714521  1
  Ni  Ni23  1  0.66709007  0.33375673  0.33310974  1
  Ni  Ni24  1  0.66709007  0.66798290  1.00024189  1
  Ni  Ni25  1  0.83380084  0.83375673  0.16694665  1
  Ni  Ni26  1  0.66709007  0.66729682  0.33379887  1
  Ni  Ni27  1  0.16709007  0.16694798  0.50063582  1
  Ni  Ni28  1  0.99913982  0.00170698  0.66647876  1
  Ni  Ni29  1  0.16709007  0.16869803  0.83368026  1
  Ni  Ni30  1  0.16709007  0.50056548  0.50063582  1
  Ni  Ni31  1  0.00057799  0.33375673  0.66722589  1
  Ni  Ni32  1  0.16709007  0.49881544  0.83368026  1
  Ni  Ni33  1  0.16709007  0.83375673  0.50020202  1
  Ni  Ni34  1  0.99913982  0.66580649  0.66647876  1
  Cr  Cr35  1  0.16709007  0.83375673  0.83398487  1
  Ni  Ni36  1  0.50068814  0.16735481  0.50040659  1
  Ni  Ni37  1  0.33504031  0.00170698  0.66647876  1
  Ni  Ni38  1  0.50051352  0.16718018  0.83372140  1
  Ni  Ni39  1  0.50068814  0.50015866  0.50040659  1
  Ni  Ni40  1  0.33360214  0.33375673  0.66722589  1
  Ni  Ni41  1  0.50051352  0.50033329  0.83372140  1
  Ni  Ni42  1  0.50028132  0.83375673  0.50063582  1
  Ni  Ni43  1  0.33504031  0.66580649  0.66647876  1
  Ni  Ni44  1  0.50203136  0.83375673  0.83368026  1
  Ni  Ni45  1  0.83349199  0.16735481  0.50040659  1
  Ni  Ni46  1  0.66709007  1.00026881  0.66722589  1
  Ni  Ni47  1  0.83366662  0.16718018  0.83372140  1
  Ni  Ni48  1  0.83349199  0.50015866  0.50040659  1
  Ni  Ni49  1  0.66709007  0.33375673  0.66767896  1
  Ni  Ni50  1  0.83366662  0.50033329  0.83372140  1
  Ni  Ni51  1  0.83389882  0.83375673  0.50063582  1
  Ni  Ni52  1  0.66709007  0.66724466  0.66722589  1
  Ni  Ni53  1  0.83214877  0.83375673  0.83368026  1
" 