463,Ni96Fe3Cr0_12,-239.034796854114, 177.501252624107,Ni96Fe3Cr0,"# generated using pymatgen
 data_Cr2FeNi51
_symmetry_space_group_name_H-M   'P 1'
_cell_length_a   7.46173635
_cell_length_b   7.46173635
_cell_length_c   10.55248875
_cell_angle_alpha   90.00000000
_cell_angle_beta   90.00000000
_cell_angle_gamma   90.00000000
_symmetry_Int_Tables_number   1
_chemical_formula_structural   Cr2FeNi51
_chemical_formula_sum   'Cr2 Fe1 Ni51'
_cell_volume   587.53629184
_cell_formula_units_Z   1
loop_
 _symmetry_equiv_pos_site_id
 _symmetry_equiv_pos_as_xyz
  1  'x, y, z'
loop_
 _atom_site_type_symbol
 _atom_site_label
 _atom_site_symmetry_multiplicity
 _atom_site_fract_x
 _atom_site_fract_y
 _atom_site_fract_z
 _atom_site_occupancy
  Ni  Ni0  1  0.00049236  0.00053926  1.00012384  1
  Ni  Ni1  1  0.16634245  0.16684592  0.16712004  1
  Ni  Ni2  1  0.00038167  0.00052282  0.33379375  1
  Ni  Ni3  1  0.00153246  0.33250876  0.00114651  1
  Ni  Ni4  1  0.16758625  0.49987346  0.16667420  1
  Ni  Ni5  1  0.00055326  0.33351222  0.33379053  1
  Ni  Ni6  1  0.00298626  0.66806305  0.00152365  1
  Ni  Ni7  1  0.16774112  0.83433520  0.16688662  1
  Ni  Ni8  1  0.00038014  0.66704009  0.33322801  1
  Ni  Ni9  1  0.33345362  0.00046716  0.00041257  1
  Fe  Fe10  1  0.49992002  0.16677056  0.16725873  1
  Ni  Ni11  1  0.33337783  0.00039910  0.33380374  1
  Ni  Ni12  1  0.33343063  0.33362052  1.00019049  1
  Ni  Ni13  1  0.49933591  0.50009430  0.16769205  1
  Ni  Ni14  1  0.33339129  0.33380251  0.33379026  1
  Ni  Ni15  1  0.33213656  0.66697853  1.00013286  1
  Ni  Ni16  1  0.49921679  0.83405627  0.16787753  1
  Ni  Ni17  1  0.33367349  0.66686496  0.33356056  1
  Ni  Ni18  1  0.66709848  0.00194209  1.00023040  1
  Ni  Ni19  1  0.83432727  0.16699817  0.16666561  1
  Ni  Ni20  1  0.66727777  1.00026281  0.33352663  1
  Ni  Ni21  1  0.66599830  0.33112790  0.00129849  1
  Ni  Ni22  1  0.83417651  0.49881203  0.16813284  1
  Ni  Ni23  1  0.66709231  0.33375039  0.33352887  1
  Cr  Cr24  1  0.66615813  0.66816910  0.00096840  1
  Ni  Ni25  1  0.83417353  0.83527041  0.16772281  1
  Ni  Ni26  1  0.66701532  0.66704042  0.33398447  1
  Ni  Ni27  1  0.16714064  0.16684185  0.50035373  1
  Ni  Ni28  1  0.00046926  0.00041953  0.66715652  1
  Ni  Ni29  1  0.16712063  0.16685365  0.83357709  1
  Ni  Ni30  1  0.16726524  0.50027765  0.50026716  1
  Ni  Ni31  1  0.00154278  0.33263001  0.66612047  1
  Ni  Ni32  1  0.16888550  0.50016781  0.83415220  1
  Ni  Ni33  1  0.16743335  0.83393904  0.50003253  1
  Ni  Ni34  1  0.00142919  0.66807166  0.66630017  1
  Ni  Ni35  1  0.16745992  0.83405944  0.83414571  1
  Ni  Ni36  1  0.50034272  0.16684903  0.49966722  1
  Ni  Ni37  1  0.33365549  0.00066982  0.66692833  1
  Ni  Ni38  1  0.50023189  0.16682899  0.83449410  1
  Ni  Ni39  1  0.50033329  0.50039955  0.50058941  1
  Ni  Ni40  1  0.33364362  0.33343853  0.66716009  1
  Ni  Ni41  1  0.49778581  0.49937063  0.83273433  1
  Ni  Ni42  1  0.50016922  0.83381179  0.50036296  1
  Ni  Ni43  1  0.33354176  0.66696708  0.66738015  1
  Ni  Ni44  1  0.49912585  0.83485440  0.83274629  1
  Ni  Ni45  1  0.83359321  0.16702312  0.50060233  1
  Ni  Ni46  1  0.66693889  0.00051829  0.66738347  1
  Ni  Ni47  1  0.83371463  0.16543554  0.83379606  1
  Ni  Ni48  1  0.83346557  0.50009962  0.49983616  1
  Ni  Ni49  1  0.66585270  0.33249223  0.66631622  1
  Cr  Cr50  1  0.83473009  0.49894732  0.83285153  1
  Ni  Ni51  1  0.83346875  0.83395658  0.50025442  1
  Ni  Ni52  1  0.66611027  0.66806291  0.66589248  1
  Ni  Ni53  1  0.83451854  0.83656450  0.83305299  1
" 