1597,Ni96Fe2Cr0_4,-239.841623209367, 180.327182195554,Ni96Fe2Cr0,"# generated using pymatgen
 data_CrFeNi52
_symmetry_space_group_name_H-M   'P 1'
_cell_length_a   7.46083309
_cell_length_b   7.46083309
_cell_length_c   10.55121135
_cell_angle_alpha   90.00000000
_cell_angle_beta   90.00000000
_cell_angle_gamma   90.00000000
_symmetry_Int_Tables_number   1
_chemical_formula_structural   CrFeNi52
_chemical_formula_sum   'Cr1 Fe1 Ni52'
_cell_volume   587.32294967
_cell_formula_units_Z   1
loop_
 _symmetry_equiv_pos_site_id
 _symmetry_equiv_pos_as_xyz
  1  'x, y, z'
loop_
 _atom_site_type_symbol
 _atom_site_label
 _atom_site_symmetry_multiplicity
 _atom_site_fract_x
 _atom_site_fract_y
 _atom_site_fract_z
 _atom_site_occupancy
  Cr  Cr0  1  0.00082063  0.00041648  1.00006315  1
  Ni  Ni1  1  0.16809978  0.16814583  0.16790887  1
  Ni  Ni2  1  0.00116684  0.00041648  0.33398437  1
  Ni  Ni3  1  1.00016655  0.33510341  0.00072021  1
  Ni  Ni4  1  0.16701737  0.50041648  0.16717173  1
  Ni  Ni5  1  0.99987435  0.33320598  0.33354438  1
  Ni  Ni6  1  1.00016655  0.66572954  0.00072021  1
  Ni  Ni7  1  0.16809978  0.83268712  0.16790887  1
  Ni  Ni8  1  0.99987435  0.66762697  0.33354438  1
  Ni  Ni9  1  0.33532103  0.00041648  1.00035450  1
  Ni  Ni10  1  0.50033234  0.16708954  0.16689619  1
  Ni  Ni11  1  0.33287241  0.00041648  0.33353917  1
  Ni  Ni12  1  0.33417910  0.33367920  0.00071979  1
  Ni  Ni13  1  0.50040409  0.50041648  0.16707216  1
  Ni  Ni14  1  0.33446171  0.33336477  0.33377509  1
  Ni  Ni15  1  0.33417910  0.66715375  0.00071979  1
  Ni  Ni16  1  0.50033234  0.83374342  0.16689619  1
  Ni  Ni17  1  0.33446171  0.66746818  0.33377509  1
  Ni  Ni18  1  0.66553568  0.00041648  0.00108443  1
  Ni  Ni19  1  0.83276202  0.16813278  0.16798420  1
  Fe  Fe20  1  0.66689373  0.00041648  0.33384830  1
  Ni  Ni21  1  0.66689986  0.33400496  1.00036969  1
  Ni  Ni22  1  0.83382469  0.50041648  0.16684158  1
  Ni  Ni23  1  0.66692366  0.33471469  0.33377051  1
  Ni  Ni24  1  0.66689986  0.66682799  1.00036969  1
  Ni  Ni25  1  0.83276202  0.83270018  0.16798420  1
  Ni  Ni26  1  0.66692366  0.66611826  0.33377051  1
  Ni  Ni27  1  0.16710604  0.16710960  0.50048906  1
  Ni  Ni28  1  0.00048814  0.00041648  0.66690374  1
  Ni  Ni29  1  0.16817558  0.16830269  0.83279699  1
  Ni  Ni30  1  0.16692511  0.50041648  0.50015691  1
  Ni  Ni31  1  1.00016837  0.33349469  0.66699074  1
  Ni  Ni32  1  0.16701302  0.50041648  0.83392476  1
  Ni  Ni33  1  0.16710604  0.83372335  0.50048906  1
  Ni  Ni34  1  1.00016837  0.66733826  0.66699074  1
  Ni  Ni35  1  0.16817558  0.83253026  0.83279699  1
  Ni  Ni36  1  0.50029310  0.16704882  0.50048562  1
  Ni  Ni37  1  0.33368020  0.00041648  0.66733163  1
  Ni  Ni38  1  0.50054462  0.16687568  0.83392414  1
  Ni  Ni39  1  0.50040728  0.50041648  0.50048833  1
  Ni  Ni40  1  0.33416480  0.33366759  0.66675355  1
  Ni  Ni41  1  0.50029121  0.50041648  0.83368558  1
  Ni  Ni42  1  0.50029310  0.83378414  0.50048562  1
  Ni  Ni43  1  0.33416480  0.66716536  0.66675355  1
  Ni  Ni44  1  0.50054462  0.83395727  0.83392414  1
  Ni  Ni45  1  0.83383012  0.16719622  0.50045855  1
  Ni  Ni46  1  0.66708228  0.00041648  0.66661289  1
  Ni  Ni47  1  0.83254256  0.16801415  0.83282208  1
  Ni  Ni48  1  0.83391800  0.50041648  0.50048994  1
  Ni  Ni49  1  0.66691718  0.33398257  0.66709770  1
  Ni  Ni50  1  0.83394450  0.50041648  0.83392179  1
  Ni  Ni51  1  0.83383012  0.83363673  0.50045855  1
  Ni  Ni52  1  0.66691718  0.66685039  0.66709770  1
  Ni  Ni53  1  0.83254256  0.83281880  0.83282208  1
" 