6975,Ni96Fe2Cr0_9,-239.833373914862, 180.475841239143,Ni96Fe2Cr0,"# generated using pymatgen
 data_CrFeNi52
_symmetry_space_group_name_H-M   'P 1'
_cell_length_a   7.46098754
_cell_length_b   7.46098754
_cell_length_c   10.55142977
_cell_angle_alpha   90.00000000
_cell_angle_beta   90.00000000
_cell_angle_gamma   90.00000000
_symmetry_Int_Tables_number   1
_chemical_formula_structural   CrFeNi52
_chemical_formula_sum   'Cr1 Fe1 Ni52'
_cell_volume   587.35942484
_cell_formula_units_Z   1
loop_
 _symmetry_equiv_pos_site_id
 _symmetry_equiv_pos_as_xyz
  1  'x, y, z'
loop_
 _atom_site_type_symbol
 _atom_site_label
 _atom_site_symmetry_multiplicity
 _atom_site_fract_x
 _atom_site_fract_y
 _atom_site_fract_z
 _atom_site_occupancy
  Ni  Ni0  1  1.00023121  1.00016076  0.00088133  1
  Ni  Ni1  1  0.16707278  0.16541988  0.16732656  1
  Ni  Ni2  1  0.99992828  0.99986022  0.33357096  1
  Ni  Ni3  1  0.99907806  0.33290687  0.99976223  1
  Cr  Cr4  1  0.16707278  0.50010665  0.16667819  1
  Ni  Ni5  1  0.99883275  0.33325090  0.33463622  1
  Ni  Ni6  1  0.99941177  0.66813105  0.99944484  1
  Ni  Ni7  1  0.16707278  0.83529585  0.16700893  1
  Ni  Ni8  1  1.00016834  0.66807910  0.33461229  1
  Ni  Ni9  1  0.33391436  1.00016076  0.00088133  1
  Ni  Ni10  1  0.50056943  0.16689428  0.16699807  1
  Ni  Ni11  1  0.33421728  0.99986022  0.33357096  1
  Ni  Ni12  1  0.33506751  0.33290687  0.99976223  1
  Ni  Ni13  1  0.50197644  0.50037442  0.16709520  1
  Ni  Ni14  1  0.33531282  0.33325090  0.33463622  1
  Ni  Ni15  1  0.33473380  0.66813105  0.99944484  1
  Ni  Ni16  1  0.50052031  0.83399041  0.16705609  1
  Ni  Ni17  1  0.33397723  0.66807910  0.33461229  1
  Ni  Ni18  1  0.66707278  0.00047564  1.00029901  1
  Ni  Ni19  1  0.83357613  0.16689428  0.16699807  1
  Ni  Ni20  1  0.66707278  0.00125674  0.33380178  1
  Ni  Ni21  1  0.66707278  0.33373467  0.00052710  1
  Ni  Ni22  1  0.83216913  0.50037442  0.16709520  1
  Ni  Ni23  1  0.66707278  0.33307542  0.33356791  1
  Ni  Ni24  1  0.66707278  0.66699997  0.00123364  1
  Ni  Ni25  1  0.83362526  0.83399041  0.16705609  1
  Fe  Fe26  1  0.66707278  0.66726893  0.33382923  1
  Ni  Ni27  1  0.16707278  0.16708016  0.49994689  1
  Ni  Ni28  1  1.00031216  1.00015955  0.66677376  1
  Ni  Ni29  1  0.16707278  0.16708770  0.83395299  1
  Ni  Ni30  1  0.16707278  0.50039539  0.50070665  1
  Ni  Ni31  1  1.00014247  0.33397054  0.66677294  1
  Ni  Ni32  1  0.16707278  0.50028419  0.83351720  1
  Ni  Ni33  1  0.16707278  0.83374901  0.50027882  1
  Ni  Ni34  1  0.00045548  0.66708876  0.66711354  1
  Ni  Ni35  1  0.16707278  0.83384896  0.83394912  1
  Ni  Ni36  1  0.50055268  0.16690636  0.50050005  1
  Ni  Ni37  1  0.33383341  1.00015955  0.66677376  1
  Ni  Ni38  1  0.50044541  0.16691148  0.83371273  1
  Ni  Ni39  1  0.50030862  0.50031419  0.50024333  1
  Ni  Ni40  1  0.33400310  0.33397054  0.66677294  1
  Ni  Ni41  1  0.50052600  0.50053921  0.83395171  1
  Ni  Ni42  1  0.50044125  0.83401430  0.50049374  1
  Ni  Ni43  1  0.33369009  0.66708876  0.66711354  1
  Ni  Ni44  1  0.50069890  0.83376538  0.83371546  1
  Ni  Ni45  1  0.83359289  0.16690636  0.50050005  1
  Ni  Ni46  1  0.66707278  0.00047008  0.66711219  1
  Ni  Ni47  1  0.83370016  0.16691148  0.83371273  1
  Ni  Ni48  1  0.83383694  0.50031419  0.50024333  1
  Ni  Ni49  1  0.66707278  0.33382478  0.66711485  1
  Ni  Ni50  1  0.83361957  0.50053921  0.83395171  1
  Ni  Ni51  1  0.83370432  0.83401430  0.50049374  1
  Ni  Ni52  1  0.66707278  0.66692075  0.66641030  1
  Ni  Ni53  1  0.83344667  0.83376538  0.83371546  1
" 