2333,Ni96Fe2Cr1_15,-239.833373914862, 180.475841241043,Ni96Fe2Cr1,"# generated using pymatgen
 data_CrFeNi52
_symmetry_space_group_name_H-M   'P 1'
_cell_length_a   7.46098754
_cell_length_b   7.46098754
_cell_length_c   10.55142977
_cell_angle_alpha   90.00000000
_cell_angle_beta   90.00000000
_cell_angle_gamma   90.00000000
_symmetry_Int_Tables_number   1
_chemical_formula_structural   CrFeNi52
_chemical_formula_sum   'Cr1 Fe1 Ni52'
_cell_volume   587.35942484
_cell_formula_units_Z   1
loop_
 _symmetry_equiv_pos_site_id
 _symmetry_equiv_pos_as_xyz
  1  'x, y, z'
loop_
 _atom_site_type_symbol
 _atom_site_label
 _atom_site_symmetry_multiplicity
 _atom_site_fract_x
 _atom_site_fract_y
 _atom_site_fract_z
 _atom_site_occupancy
  Ni  Ni0  1  0.99957354  0.99907806  0.99976223  1
  Cr  Cr1  1  0.16677332  0.16707278  0.16667819  1
  Ni  Ni2  1  0.99991757  0.99883275  0.33463622  1
  Ni  Ni3  1  0.99957354  0.33506751  0.99976223  1
  Ni  Ni4  1  0.16704109  0.50197644  0.16709520  1
  Ni  Ni5  1  0.99991757  0.33531282  0.33463622  1
  Ni  Ni6  1  1.00040134  0.66707278  0.00052710  1
  Ni  Ni7  1  0.16704109  0.83216913  0.16709520  1
  Ni  Ni8  1  0.99974208  0.66707278  0.33356791  1
  Ni  Ni9  1  0.33479772  0.99941177  0.99944484  1
  Ni  Ni10  1  0.50196251  0.16707278  0.16700893  1
  Ni  Ni11  1  0.33474577  1.00016834  0.33461229  1
  Ni  Ni12  1  0.33479772  0.33473380  0.99944484  1
  Ni  Ni13  1  0.50065708  0.50052031  0.16705609  1
  Ni  Ni14  1  0.33474577  0.33397723  0.33461229  1
  Ni  Ni15  1  0.33366663  0.66707278  0.00123364  1
  Ni  Ni16  1  0.50065708  0.83362526  0.16705609  1
  Fe  Fe17  1  0.33393560  0.66707278  0.33382923  1
  Ni  Ni18  1  0.66682743  1.00023121  0.00088133  1
  Ni  Ni19  1  0.83208655  0.16707278  0.16732656  1
  Ni  Ni20  1  0.66652688  0.99992828  0.33357096  1
  Ni  Ni21  1  0.66682743  0.33391436  0.00088133  1
  Ni  Ni22  1  0.83356095  0.50056943  0.16699807  1
  Ni  Ni23  1  0.66652688  0.33421728  0.33357096  1
  Ni  Ni24  1  0.66714230  0.66707278  1.00029901  1
  Ni  Ni25  1  0.83356095  0.83357613  0.16699807  1
  Ni  Ni26  1  0.66792341  0.66707278  0.33380178  1
  Ni  Ni27  1  0.16706206  0.16707278  0.50070665  1
  Ni  Ni28  1  0.00063720  1.00014247  0.66677294  1
  Ni  Ni29  1  0.16695085  0.16707278  0.83351720  1
  Ni  Ni30  1  0.16698085  0.50030862  0.50024333  1
  Ni  Ni31  1  0.00063720  0.33400310  0.66677294  1
  Ni  Ni32  1  0.16720588  0.50052600  0.83395171  1
  Ni  Ni33  1  0.16698085  0.83383694  0.50024333  1
  Ni  Ni34  1  0.00049145  0.66707278  0.66711485  1
  Ni  Ni35  1  0.16720588  0.83361957  0.83395171  1
  Ni  Ni36  1  0.50041568  0.16707278  0.50027882  1
  Ni  Ni37  1  0.33375543  0.00045548  0.66711354  1
  Ni  Ni38  1  0.50051563  0.16707278  0.83394912  1
  Ni  Ni39  1  0.50068097  0.50044125  0.50049374  1
  Ni  Ni40  1  0.33375543  0.33369009  0.66711354  1
  Ni  Ni41  1  0.50043205  0.50069890  0.83371546  1
  Ni  Ni42  1  0.50068097  0.83370432  0.50049374  1
  Ni  Ni43  1  0.33358742  0.66707278  0.66641030  1
  Ni  Ni44  1  0.50043205  0.83344667  0.83371546  1
  Ni  Ni45  1  0.83374683  0.16707278  0.49994689  1
  Ni  Ni46  1  0.66682621  1.00031216  0.66677376  1
  Ni  Ni47  1  0.83375437  0.16707278  0.83395299  1
  Ni  Ni48  1  0.83357302  0.50055268  0.50050005  1
  Ni  Ni49  1  0.66682621  0.33383341  0.66677376  1
  Ni  Ni50  1  0.83357815  0.50044541  0.83371273  1
  Ni  Ni51  1  0.83357302  0.83359289  0.50050005  1
  Ni  Ni52  1  0.66713674  0.66707278  0.66711219  1
  Ni  Ni53  1  0.83357815  0.83370016  0.83371273  1
" 