621,Ni96Fe2Cr0_17,-239.84067709179, 180.234391486336,Ni96Fe2Cr0,"# generated using pymatgen
 data_CrFeNi52
_symmetry_space_group_name_H-M   'P 1'
_cell_length_a   7.46060115
_cell_length_b   7.46060115
_cell_length_c   10.55088333
_cell_angle_alpha   90.00000000
_cell_angle_beta   90.00000000
_cell_angle_gamma   90.00000000
_symmetry_Int_Tables_number   1
_chemical_formula_structural   CrFeNi52
_chemical_formula_sum   'Cr1 Fe1 Ni52'
_cell_volume   587.26817467
_cell_formula_units_Z   1
loop_
 _symmetry_equiv_pos_site_id
 _symmetry_equiv_pos_as_xyz
  1  'x, y, z'
loop_
 _atom_site_type_symbol
 _atom_site_label
 _atom_site_symmetry_multiplicity
 _atom_site_fract_x
 _atom_site_fract_y
 _atom_site_fract_z
 _atom_site_occupancy
  Ni  Ni0  1  1.00033953  0.00057843  1.00027015  1
  Ni  Ni1  1  0.16716439  0.16708435  0.16685855  1
  Ni  Ni2  1  0.00068270  1.00034382  0.33373490  1
  Ni  Ni3  1  0.99924464  0.33257798  0.00133389  1
  Ni  Ni4  1  0.16685452  0.50018786  0.16763364  1
  Ni  Ni5  1  0.00049219  0.33382553  0.33374443  1
  Ni  Ni6  1  0.99951269  0.66815234  0.00134237  1
  Ni  Ni7  1  0.16685612  0.83402890  0.16720656  1
  Ni  Ni8  1  1.00042305  0.66711933  0.33368969  1
  Ni  Ni9  1  0.33371386  1.00030175  1.00027089  1
  Ni  Ni10  1  0.50054002  0.16692181  0.16708952  1
  Ni  Ni11  1  0.33360417  1.00042213  0.33368950  1
  Ni  Ni12  1  0.33481900  0.33284602  0.00134237  1
  Ni  Ni13  1  0.50069557  0.50018945  0.16720656  1
  Ni  Ni14  1  0.33378599  0.33375638  0.33368969  1
  Ni  Ni15  1  0.33482796  0.66816129  0.00135259  1
  Ni  Ni16  1  0.50084858  0.83418192  0.16743059  1
  Ni  Ni17  1  0.33378456  0.66711789  0.33404030  1
  Ni  Ni18  1  0.66724340  0.00057674  0.00049807  1
  Ni  Ni19  1  0.83359114  0.16692447  0.16779997  1
  Ni  Ni20  1  0.66700150  1.00033484  0.33372603  1
  Ni  Ni21  1  0.66724509  0.33367286  1.00027015  1
  Ni  Ni22  1  0.83375102  0.50049772  0.16685855  1
  Ni  Ni23  1  0.66701049  0.33401604  0.33373490  1
  Ni  Ni24  1  0.66696841  0.66704720  1.00027089  1
  Ni  Ni25  1  0.83358848  0.83387336  0.16708952  1
  Ni  Ni26  1  0.66708880  0.66693750  0.33368950  1
  Ni  Ni27  1  0.16787520  0.16708610  0.50063314  1
  Ni  Ni28  1  0.00056126  1.00035445  0.66727964  1
  Ni  Ni29  1  0.16717181  0.16556937  0.83381355  1
  Ni  Ni30  1  0.16656225  0.49989558  0.50020463  1
  Ni  Ni31  1  0.99944859  0.33278192  0.66620049  1
  Cr  Cr32  1  0.16691137  0.50024470  0.83352560  1
  Ni  Ni33  1  0.16655893  0.83432201  0.50062807  1
  Ni  Ni34  1  0.99942226  0.66810010  0.66629827  1
  Ni  Ni35  1  0.16685025  0.83557982  0.83345965  1
  Ni  Ni36  1  0.49979405  0.16691798  0.50039418  1
  Ni  Ni37  1  0.33372372  1.00042519  0.66733491  1
  Ni  Ni38  1  0.50054117  0.16691878  0.83381303  1
  Ni  Ni39  1  0.50098868  0.49989227  0.50062807  1
  Ni  Ni40  1  0.33476676  0.33275559  0.66629827  1
  Ni  Ni41  1  0.50224648  0.50018359  0.83345965  1
  Ni  Ni42  1  0.50114592  0.83447925  0.50040014  1
  Ni  Ni43  1  0.33480967  0.66814300  0.66592245  1
  Ni  Ni44  1  0.50086260  0.83419593  0.83346308  1
  Fe  Fe45  1  0.83353360  0.16686693  0.50028815  1
  Ni  Ni46  1  0.66702048  1.00035382  0.66705361  1
  Ni  Ni47  1  0.83358499  0.16691832  0.83309895  1
  Ni  Ni48  1  0.83375277  0.50120853  0.50063314  1
  Ni  Ni49  1  0.66702111  0.33389459  0.66727964  1
  Ni  Ni50  1  0.83223604  0.50050514  0.83381355  1
  Ni  Ni51  1  0.83358465  0.83312738  0.50039418  1
  Ni  Ni52  1  0.66709186  0.66705705  0.66733491  1
  Ni  Ni53  1  0.83358545  0.83387450  0.83381303  1
" 