1687,Ni97Fe3_13,-224.343956662345, 128.301997813523,Ni97Fe3,"# generated using pymatgen
 data_Fe26Ni
_symmetry_space_group_name_H-M   'P 1'
_cell_length_a   7.41305592
_cell_length_b   7.41305592
_cell_length_c   10.48364421
_cell_angle_alpha   90.00000000
_cell_angle_beta   90.00000000
_cell_angle_gamma   90.00000000
_symmetry_Int_Tables_number   1
_chemical_formula_structural   Fe26Ni
_chemical_formula_sum   'Fe52 Ni2'
_cell_volume   576.11187310
_cell_formula_units_Z   2
loop_
 _symmetry_equiv_pos_site_id
 _symmetry_equiv_pos_as_xyz
  1  'x, y, z'
loop_
 _atom_site_type_symbol
 _atom_site_label
 _atom_site_symmetry_multiplicity
 _atom_site_fract_x
 _atom_site_fract_y
 _atom_site_fract_z
 _atom_site_occupancy
  Fe  Fe0  1  1.00364077  0.00364166  0.00364256  1
  Fe  Fe1  1  0.17030832  0.17030743  0.17030923  1
  Fe  Fe2  1  0.00364255  0.00364166  0.33697410  1
  Fe  Fe3  1  0.00364554  0.33697889  1.00363777  1
  Fe  Fe4  1  0.17030924  0.50364166  0.17030017  1
  Fe  Fe5  1  1.00363778  0.33697889  0.33697889  1
  Fe  Fe6  1  0.00364554  0.67030443  1.00363777  1
  Fe  Fe7  1  0.17030832  0.83697590  0.17030923  1
  Fe  Fe8  1  1.00363778  0.67030443  0.33697889  1
  Fe  Fe9  1  0.33697588  0.00364166  0.00364256  1
  Fe  Fe10  1  0.50364166  0.17030834  0.17030833  1
  Fe  Fe11  1  0.33697499  0.00364166  0.33697501  1
  Fe  Fe12  1  0.33697111  0.33697889  1.00363777  1
  Fe  Fe13  1  0.50364166  0.50364166  0.17030833  1
  Fe  Fe14  1  0.33697499  0.33697411  0.33697410  1
  Fe  Fe15  1  0.33697111  0.67030444  1.00363777  1
  Fe  Fe16  1  0.50364166  0.83697498  0.17030833  1
  Fe  Fe17  1  0.33697499  0.67030921  0.33697410  1
  Fe  Fe18  1  0.67030833  0.00364166  1.00364165  1
  Fe  Fe19  1  0.83697500  0.17030743  0.17030743  1
  Fe  Fe20  1  0.67030744  0.00364166  0.33697410  1
  Fe  Fe21  1  0.67030834  0.33697411  0.00364256  1
  Fe  Fe22  1  0.83697409  0.50364166  0.17031649  1
  Fe  Fe23  1  0.67031222  0.33697889  0.33697889  1
  Fe  Fe24  1  0.67030834  0.67030921  0.00364256  1
  Fe  Fe25  1  0.83697500  0.83697590  0.17030743  1
  Fe  Fe26  1  0.67031222  0.67030444  0.33697889  1
  Fe  Fe27  1  0.17030107  0.17031469  0.50364077  1
  Fe  Fe28  1  0.00364166  0.00364166  0.67030833  1
  Fe  Fe29  1  0.17030832  0.17031610  0.83697499  1
  Fe  Fe30  1  0.17030056  0.50364166  0.50364893  1
  Fe  Fe31  1  0.00364166  0.33698277  0.67030833  1
  Ni  Ni32  1  0.17030753  0.50364166  0.83697418  1
  Fe  Fe33  1  0.17030107  0.83696864  0.50364077  1
  Fe  Fe34  1  0.00364166  0.67030055  0.67030833  1
  Fe  Fe35  1  0.17030832  0.83696722  0.83697499  1
  Fe  Fe36  1  0.50364892  0.17031560  0.50364167  1
  Fe  Fe37  1  0.33697588  0.00364166  0.67030742  1
  Fe  Fe38  1  0.50363441  0.17031560  0.83697499  1
  Fe  Fe39  1  0.50365034  0.50364166  0.50364077  1
  Fe  Fe40  1  0.33697111  0.33697799  0.67031312  1
  Fe  Fe41  1  0.50363299  0.50364166  0.83697589  1
  Fe  Fe42  1  0.50364892  0.83696773  0.50364167  1
  Fe  Fe43  1  0.33697111  0.67030533  0.67031312  1
  Fe  Fe44  1  0.50363441  0.83696773  0.83697499  1
  Fe  Fe45  1  0.83697500  0.17031610  0.50364167  1
  Fe  Fe46  1  0.67030744  0.00364166  0.67030924  1
  Fe  Fe47  1  0.83698226  0.17031469  0.83697589  1
  Ni  Ni48  1  0.83697579  0.50364166  0.50364247  1
  Fe  Fe49  1  0.67031222  0.33697799  0.67030354  1
  Fe  Fe50  1  0.83698276  0.50364166  0.83696773  1
  Fe  Fe51  1  0.83697500  0.83696722  0.50364167  1
  Fe  Fe52  1  0.67031222  0.67030533  0.67030354  1
  Fe  Fe53  1  0.83698226  0.83696864  0.83697589  1
" 