4255,Ni97Cr3_2,-200.687724428867, 201.195089922273,Ni97Cr3,"# generated using pymatgen
 data_Cr26Ni
_symmetry_space_group_name_H-M   'P 1'
_cell_length_a   7.60123045
_cell_length_b   7.60123045
_cell_length_c   10.74976319
_cell_angle_alpha   90.00000000
_cell_angle_beta   90.00000000
_cell_angle_gamma   90.00000000
_symmetry_Int_Tables_number   1
_chemical_formula_structural   Cr26Ni
_chemical_formula_sum   'Cr52 Ni2'
_cell_volume   621.10738842
_cell_formula_units_Z   2
loop_
 _symmetry_equiv_pos_site_id
 _symmetry_equiv_pos_as_xyz
  1  'x, y, z'
loop_
 _atom_site_type_symbol
 _atom_site_label
 _atom_site_symmetry_multiplicity
 _atom_site_fract_x
 _atom_site_fract_y
 _atom_site_fract_z
 _atom_site_occupancy
  Cr  Cr0  1  -0.00788628  0.99066701  -0.00831976  1
  Cr  Cr1  1  0.15784102  0.15683485  0.15784028  1
  Cr  Cr2  1  -0.00788628  0.99066701  0.32400032  1
  Cr  Cr3  1  0.99051731  0.32450694  -0.00882624  1
  Cr  Cr4  1  0.15784102  0.49217903  0.15784028  1
  Cr  Cr5  1  0.99051731  0.32450694  0.32450680  1
  Cr  Cr6  1  -0.00788628  0.65834688  -0.00831976  1
  Ni  Ni7  1  0.15783532  0.82450694  0.15784028  1
  Cr  Cr8  1  -0.00788628  0.65834688  0.32400032  1
  Cr  Cr9  1  0.32378336  0.99012149  -0.00777186  1
  Cr  Cr10  1  0.49112426  0.15779250  0.15784028  1
  Cr  Cr11  1  0.32378336  0.99012149  0.32345242  1
  Cr  Cr12  1  0.32483526  0.32450694  0.99079268  1
  Cr  Cr13  1  0.49112426  0.49122139  0.15784028  1
  Cr  Cr14  1  0.32483526  0.32450694  0.32488787  1
  Cr  Cr15  1  0.32378336  0.65889240  -0.00777186  1
  Cr  Cr16  1  0.49017423  0.82450694  0.15784028  1
  Cr  Cr17  1  0.32378336  0.65889240  0.32345242  1
  Cr  Cr18  1  0.65762315  -0.00828117  0.99062652  1
  Cr  Cr19  1  0.82455551  0.15778490  0.15784028  1
  Cr  Cr20  1  0.65762315  -0.00828117  0.32505404  1
  Cr  Cr21  1  0.65816836  0.32450694  -0.00849291  1
  Cr  Cr22  1  0.82455551  0.49122899  0.15784028  1
  Cr  Cr23  1  0.65816836  0.32450694  0.32417346  1
  Cr  Cr24  1  0.65762315  0.65729506  0.99062652  1
  Cr  Cr25  1  0.82551325  0.82450694  0.15784028  1
  Cr  Cr26  1  0.65762315  0.65729506  0.32505404  1
  Cr  Cr27  1  0.15856386  0.15889240  0.49222814  1
  Cr  Cr28  1  -0.00877704  -0.00877861  0.65784028  1
  Cr  Cr29  1  0.15856386  0.15889240  0.82345242  1
  Cr  Cr30  1  0.15856386  0.49012149  0.49222814  1
  Cr  Cr31  1  -0.00782701  0.32450694  0.65784028  1
  Cr  Cr32  1  0.15856386  0.49012149  0.82345242  1
  Cr  Cr33  1  0.15751197  0.82450694  0.49079268  1
  Cr  Cr34  1  -0.00877704  0.65779250  0.65784028  1
  Cr  Cr35  1  0.15751197  0.82450694  0.82488787  1
  Cr  Cr36  1  0.49023350  0.15834688  0.49168024  1
  Cr  Cr37  1  0.32450620  -0.00782097  0.65784028  1
  Cr  Cr38  1  0.49023350  0.15834688  0.82400032  1
  Cr  Cr39  1  0.49023350  0.49066701  0.49168024  1
  Ni  Ni40  1  0.32451191  0.32450694  0.65784028  1
  Cr  Cr41  1  0.49023350  0.49066701  0.82400032  1
  Cr  Cr42  1  0.49182991  0.82450694  0.49117376  1
  Cr  Cr43  1  0.32450620  0.65683485  0.65784028  1
  Cr  Cr44  1  0.49182991  0.82450694  0.82450680  1
  Cr  Cr45  1  0.82472407  0.15729506  0.49062652  1
  Cr  Cr46  1  0.65779171  -0.00877101  0.65784028  1
  Cr  Cr47  1  0.82472407  0.15729506  0.82505404  1
  Cr  Cr48  1  0.82472407  0.49171883  0.49062652  1
  Cr  Cr49  1  0.65683398  0.32450694  0.65784028  1
  Cr  Cr50  1  0.82472407  0.49171883  0.82505404  1
  Cr  Cr51  1  0.82417887  0.82450694  0.49150709  1
  Cr  Cr52  1  0.65779171  0.65778490  0.65784028  1
  Cr  Cr53  1  0.82417887  0.82450694  0.82417346  1
" 