6447,Ni97Cr3_17,-200.687724428866, 201.195089923809,Ni97Cr3,"# generated using pymatgen
 data_Cr26Ni
_symmetry_space_group_name_H-M   'P 1'
_cell_length_a   7.60123045
_cell_length_b   7.60123045
_cell_length_c   10.74976319
_cell_angle_alpha   90.00000000
_cell_angle_beta   90.00000000
_cell_angle_gamma   90.00000000
_symmetry_Int_Tables_number   1
_chemical_formula_structural   Cr26Ni
_chemical_formula_sum   'Cr52 Ni2'
_cell_volume   621.10738842
_cell_formula_units_Z   2
loop_
 _symmetry_equiv_pos_site_id
 _symmetry_equiv_pos_as_xyz
  1  'x, y, z'
loop_
 _atom_site_type_symbol
 _atom_site_label
 _atom_site_symmetry_multiplicity
 _atom_site_fract_x
 _atom_site_fract_y
 _atom_site_fract_z
 _atom_site_occupancy
  Cr  Cr0  1  -0.00882639  -0.00782009  0.99117361  1
  Cr  Cr1  1  0.15733367  0.15878039  0.15733365  1
  Cr  Cr2  1  0.99117361  0.99084553  0.32484043  1
  Ni  Ni3  1  -0.00882639  0.32450198  0.99117361  1
  Cr  Cr4  1  0.15678815  0.49045003  0.15678575  1
  Cr  Cr5  1  -0.00882639  0.32417863  0.32412601  1
  Cr  Cr6  1  -0.00882639  0.65684090  0.99117361  1
  Cr  Cr7  1  0.15838550  0.82428982  0.15838737  1
  Cr  Cr8  1  0.99117361  0.65849658  0.32450709  1
  Cr  Cr9  1  0.32445156  -0.00877782  -0.00882639  1
  Cr  Cr10  1  0.49117361  0.15718397  0.15784013  1
  Cr  Cr11  1  0.32396173  -0.00860926  0.32395985  1
  Cr  Cr12  1  0.32350152  0.32450769  0.99117361  1
  Cr  Cr13  1  0.49117361  0.49150192  0.15822121  1
  Cr  Cr14  1  0.32555907  0.32523053  0.32556147  1
  Cr  Cr15  1  0.32445917  0.65779092  -0.00882639  1
  Cr  Cr16  1  0.49117361  0.82483502  0.15750679  1
  Cr  Cr17  1  0.32501355  0.65690016  0.32501357  1
  Cr  Cr18  1  0.65789566  -0.00877782  -0.00882639  1
  Cr  Cr19  1  0.82501355  0.15878039  0.15733365  1
  Cr  Cr20  1  0.65838550  -0.00860926  0.32395985  1
  Cr  Cr21  1  0.65884570  0.32450769  0.99117361  1
  Cr  Cr22  1  0.82555907  0.49045003  0.15678575  1
  Cr  Cr23  1  0.65678815  0.32523053  0.32556147  1
  Cr  Cr24  1  0.65788805  0.65779092  -0.00882639  1
  Cr  Cr25  1  0.82396173  0.82428982  0.15838737  1
  Cr  Cr26  1  0.65733367  0.65690016  0.32501357  1
  Cr  Cr27  1  0.15788805  0.15788963  0.49117361  1
  Cr  Cr28  1  0.99117361  0.99084553  0.65750679  1
  Cr  Cr29  1  0.15733367  0.15878039  0.82501357  1
  Cr  Cr30  1  0.15884570  0.49117287  0.49117361  1
  Cr  Cr31  1  -0.00882639  0.32417863  0.65822121  1
  Cr  Cr32  1  0.15678815  0.49045003  0.82556147  1
  Cr  Cr33  1  0.15789566  0.82445837  0.49117361  1
  Cr  Cr34  1  0.99117361  0.65849658  0.65784013  1
  Cr  Cr35  1  0.15838550  0.82428982  0.82395985  1
  Cr  Cr36  1  0.49117361  0.15883965  0.49117361  1
  Cr  Cr37  1  0.32396173  -0.00860926  0.65838737  1
  Cr  Cr38  1  0.49117361  0.15718397  0.82450709  1
  Ni  Ni39  1  0.49117361  0.49117857  0.49117361  1
  Cr  Cr40  1  0.32555907  0.32523053  0.65678575  1
  Cr  Cr41  1  0.49117361  0.49150192  0.82412601  1
  Cr  Cr42  1  0.49117361  0.82350064  0.49117361  1
  Cr  Cr43  1  0.32501355  0.65690016  0.65733365  1
  Cr  Cr44  1  0.49117361  0.82483502  0.82484043  1
  Cr  Cr45  1  0.82445917  0.15788963  0.49117361  1
  Cr  Cr46  1  0.65838550  -0.00860926  0.65838737  1
  Cr  Cr47  1  0.82501355  0.15878039  0.82501357  1
  Cr  Cr48  1  0.82350152  0.49117287  0.49117361  1
  Cr  Cr49  1  0.65678815  0.32523053  0.65678575  1
  Cr  Cr50  1  0.82555907  0.49045003  0.82556147  1
  Cr  Cr51  1  0.82445156  0.82445837  0.49117361  1
  Cr  Cr52  1  0.65733367  0.65690016  0.65733365  1
  Cr  Cr53  1  0.82396173  0.82428982  0.82395985  1
" 