2904,Ni97Fe3_4,-224.384345526365, 127.45231869775,Ni97Fe3,"# generated using pymatgen
 data_Fe26Ni
_symmetry_space_group_name_H-M   'P 1'
_cell_length_a   7.41318390
_cell_length_b   7.41318390
_cell_length_c   10.48382521
_cell_angle_alpha   90.00000000
_cell_angle_beta   90.00000000
_cell_angle_gamma   90.00000000
_symmetry_Int_Tables_number   1
_chemical_formula_structural   Fe26Ni
_chemical_formula_sum   'Fe52 Ni2'
_cell_volume   576.14171285
_cell_formula_units_Z   2
loop_
 _symmetry_equiv_pos_site_id
 _symmetry_equiv_pos_as_xyz
  1  'x, y, z'
loop_
 _atom_site_type_symbol
 _atom_site_label
 _atom_site_symmetry_multiplicity
 _atom_site_fract_x
 _atom_site_fract_y
 _atom_site_fract_z
 _atom_site_occupancy
  Fe  Fe0  1  0.00363395  0.00363297  1.00363197  1
  Fe  Fe1  1  0.17029160  0.17030668  0.17029863  1
  Fe  Fe2  1  1.00362592  0.00364100  0.33696731  1
  Fe  Fe3  1  1.00362970  0.33697058  0.00363626  1
  Fe  Fe4  1  0.17029109  0.50363396  0.17029863  1
  Fe  Fe5  1  1.00362014  0.33697058  0.33696202  1
  Fe  Fe6  1  1.00362868  0.67029535  0.00363726  1
  Fe  Fe7  1  0.17029160  0.83695827  0.17029965  1
  Fe  Fe8  1  1.00362066  0.67028732  0.33696202  1
  Fe  Fe9  1  0.33696631  0.00363297  0.00363299  1
  Fe  Fe10  1  0.50364528  0.17031194  0.17030392  1
  Fe  Fe11  1  0.33697434  0.00364100  0.33696628  1
  Fe  Fe12  1  0.33696529  0.33696531  1.00363097  1
  Fe  Fe13  1  0.50364579  0.50362869  0.17030392  1
  Fe  Fe14  1  0.33697485  0.33696531  0.33696731  1
  Fe  Fe15  1  0.33696631  0.67030062  1.00363197  1
  Fe  Fe16  1  0.50364001  0.83695827  0.17029863  1
  Fe  Fe17  1  0.33697433  0.67029259  0.33696731  1
  Fe  Fe18  1  0.67029864  1.00363196  1.00363097  1
  Fe  Fe19  1  0.83696202  0.17031246  0.17030392  1
  Fe  Fe20  1  0.67029864  0.00364151  0.33696731  1
  Fe  Fe21  1  0.67030391  0.33697058  0.00364529  1
  Ni  Ni22  1  0.83696460  0.50363126  0.17030134  1
  Ni  Ni23  1  0.67030134  0.33696800  0.33696459  1
  Fe  Fe24  1  0.67030391  0.67029637  0.00363626  1
  Fe  Fe25  1  0.83696729  0.83695775  0.17029863  1
  Fe  Fe26  1  0.67030391  0.67028681  0.33696202  1
  Fe  Fe27  1  0.17029963  0.17029865  0.50363396  1
  Fe  Fe28  1  1.00363296  0.00363298  0.67029962  1
  Fe  Fe29  1  0.17029963  0.17029965  0.83696631  1
  Fe  Fe30  1  0.17030065  0.50363396  0.50363497  1
  Fe  Fe31  1  0.00363397  0.33696631  0.67030063  1
  Fe  Fe32  1  0.17030065  0.50363296  0.83696531  1
  Fe  Fe33  1  0.17029963  0.83696629  0.50363294  1
  Fe  Fe34  1  1.00363295  0.67029962  0.67029962  1
  Fe  Fe35  1  0.17029963  0.83696629  0.83696631  1
  Fe  Fe36  1  0.50363725  0.17030392  0.50362867  1
  Fe  Fe37  1  0.33696631  0.00363298  0.67029962  1
  Fe  Fe38  1  0.50363298  0.17029965  0.83696631  1
  Fe  Fe39  1  0.50363624  0.50362869  0.50362968  1
  Fe  Fe40  1  0.33696529  0.33696630  0.67030063  1
  Fe  Fe41  1  0.50363196  0.50363296  0.83696531  1
  Fe  Fe42  1  0.50363198  0.83696629  0.50363396  1
  Fe  Fe43  1  0.33696631  0.67029962  0.67029962  1
  Fe  Fe44  1  0.50363298  0.83696629  0.83696631  1
  Fe  Fe45  1  0.83696202  0.17030290  0.50362968  1
  Fe  Fe46  1  0.67029964  1.00363196  0.67030063  1
  Fe  Fe47  1  0.83696629  0.17029863  0.83696531  1
  Fe  Fe48  1  0.83696202  0.50362869  0.50362065  1
  Fe  Fe49  1  0.67029964  0.33696631  0.67029159  1
  Fe  Fe50  1  0.83696629  0.50363296  0.83697434  1
  Fe  Fe51  1  0.83696729  0.83696731  0.50363497  1
  Fe  Fe52  1  0.67029964  0.67030064  0.67030063  1
  Fe  Fe53  1  0.83696630  0.83696731  0.83696531  1
" 