7862,Ni97Fe2Cr0_15,-239.84067709179, 180.234391447123,Ni97Fe2Cr0,"# generated using pymatgen
 data_CrFeNi52
_symmetry_space_group_name_H-M   'P 1'
_cell_length_a   7.46060115
_cell_length_b   7.46060115
_cell_length_c   10.55088333
_cell_angle_alpha   90.00000000
_cell_angle_beta   90.00000000
_cell_angle_gamma   90.00000000
_symmetry_Int_Tables_number   1
_chemical_formula_structural   CrFeNi52
_chemical_formula_sum   'Cr1 Fe1 Ni52'
_cell_volume   587.26817467
_cell_formula_units_Z   1
loop_
 _symmetry_equiv_pos_site_id
 _symmetry_equiv_pos_as_xyz
  1  'x, y, z'
loop_
 _atom_site_type_symbol
 _atom_site_label
 _atom_site_symmetry_multiplicity
 _atom_site_fract_x
 _atom_site_fract_y
 _atom_site_fract_z
 _atom_site_occupancy
  Ni  Ni0  1  0.00148567  0.00135138  0.99952169  1
  Ni  Ni1  1  0.16720784  0.16727862  0.16705104  1
  Ni  Ni2  1  0.00143343  0.00144181  0.33456579  1
  Ni  Ni3  1  1.00038053  0.33389565  0.00059317  1
  Ni  Ni4  1  0.16752927  0.50000147  0.16740099  1
  Ni  Ni5  1  1.00039038  0.33377221  0.33352915  1
  Ni  Ni6  1  0.00149462  0.66603611  0.99951147  1
  Ni  Ni7  1  0.16891315  0.83401382  0.16740442  1
  Ni  Ni8  1  0.00147634  0.66605440  0.33494161  1
  Ni  Ni9  1  0.33391176  0.00052454  0.00059392  1
  Ni  Ni10  1  0.50025166  0.16727908  0.16776511  1
  Ni  Ni11  1  0.33368778  1.00030281  0.33358443  1
  Ni  Ni12  1  0.33391007  0.33362066  1.00036600  1
  Ni  Ni13  1  0.50025212  0.50032290  0.16705104  1
  Ni  Ni14  1  0.33368715  0.33384359  0.33381045  1
  Ni  Ni15  1  0.33363508  0.66715020  0.00059317  1
  Ni  Ni16  1  0.49890271  0.83369226  0.16705051  1
  Ni  Ni17  1  0.33375853  0.66714035  0.33352915  1
  Ni  Ni18  1  0.66591131  0.00161943  0.99953018  1
  Ni  Ni19  1  0.83383847  0.16862803  0.16705051  1
  Ni  Ni20  1  0.66611525  0.00141548  0.33466357  1
  Ni  Ni21  1  0.66700620  0.33361898  0.00059392  1
  Ni  Ni22  1  0.83351692  0.49861758  0.16740442  1
  Ni  Ni23  1  0.66722793  0.33384295  0.33358443  1
  Ni  Ni24  1  0.66617936  0.66604506  0.99952169  1
  Cr  Cr25  1  0.83357803  0.83395270  0.16733846  1
  Ni  Ni26  1  0.66608893  0.66609731  0.33456579  1
  Ni  Ni27  1  0.16646072  0.16727942  0.50046989  1
  Ni  Ni28  1  0.00045266  0.00044102  0.66717437  1
  Ni  Ni29  1  0.16720669  0.16727559  0.83377455  1
  Ni  Ni30  1  0.16781259  0.49971815  0.50046393  1
  Ni  Ni31  1  1.00027083  0.33377527  0.66717457  1
  Ni  Ni32  1  0.16751525  0.50001548  0.83343348  1
  Ni  Ni33  1  0.16765534  0.83430513  0.50023600  1
  Ni  Ni34  1  0.00045123  0.66707951  0.66682377  1
  Ni  Ni35  1  0.16736224  0.83400795  0.83365750  1
  Fe  Fe36  1  0.50020026  0.16733047  0.50057592  1
  Ni  Ni37  1  0.33367715  1.00018136  0.66712917  1
  Ni  Ni38  1  0.50025781  0.16727293  0.83306410  1
  Ni  Ni39  1  0.50025132  0.50107002  0.50046989  1
  Ni  Ni40  1  0.33366817  0.33386256  0.66713804  1
  Ni  Ni41  1  0.50025514  0.50032405  0.83377455  1
  Ni  Ni42  1  0.50041943  0.83298887  0.50023092  1
  Ni  Ni43  1  0.33375547  0.66725990  0.66717457  1
  Ni  Ni44  1  0.50041768  0.83369968  0.83400552  1
  Ni  Ni45  1  0.83454187  0.16711130  0.50023092  1
  Ni  Ni46  1  0.66715886  1.00037188  0.66711964  1
  Ni  Ni47  1  0.83383106  0.16711305  0.83400552  1
  Ni  Ni48  1  0.83322560  0.49987539  0.50023600  1
  Ni  Ni49  1  0.66734937  0.33385358  0.66712917  1
  Ni  Ni50  1  0.83352279  0.50016850  0.83365750  1
  Ni  Ni51  1  0.83322892  0.83430182  0.50065943  1
  Ni  Ni52  1  0.66708972  0.66707807  0.66717437  1
  Ni  Ni53  1  0.83352119  0.83400954  0.83323042  1
" 