6377,Ni97Cr3_15,-200.661711928291, 201.098527416079,Ni97Cr3,"# generated using pymatgen
 data_Cr26Ni
_symmetry_space_group_name_H-M   'P 1'
_cell_length_a   7.60179251
_cell_length_b   7.60179251
_cell_length_c   10.75055806
_cell_angle_alpha   90.00000000
_cell_angle_beta   90.00000000
_cell_angle_gamma   90.00000000
_symmetry_Int_Tables_number   1
_chemical_formula_structural   Cr26Ni
_chemical_formula_sum   'Cr52 Ni2'
_cell_volume   621.24517924
_cell_formula_units_Z   2
loop_
 _symmetry_equiv_pos_site_id
 _symmetry_equiv_pos_as_xyz
  1  'x, y, z'
loop_
 _atom_site_type_symbol
 _atom_site_label
 _atom_site_symmetry_multiplicity
 _atom_site_fract_x
 _atom_site_fract_y
 _atom_site_fract_z
 _atom_site_occupancy
  Cr  Cr0  1  -0.00852920  0.99112877  -0.00852530  1
  Cr  Cr1  1  0.15724922  0.15802534  0.15724644  1
  Cr  Cr2  1  -0.00885418  0.99080378  0.32413322  1
  Cr  Cr3  1  0.99040240  0.32521370  0.99040390  1
  Cr  Cr4  1  0.15835870  0.49091591  0.15836148  1
  Cr  Cr5  1  0.99113665  0.32480499  0.32413320  1
  Cr  Cr6  1  0.99040350  0.65707017  0.99040493  1
  Cr  Cr7  1  0.15780396  0.82447063  0.15780396  1
  Cr  Cr8  1  0.99113646  0.65780313  0.32447259  1
  Cr  Cr9  1  0.32447146  -0.00886187  0.99113534  1
  Cr  Cr10  1  0.49135870  0.15802536  0.15763513  1
  Cr  Cr11  1  0.32520442  -0.00812892  0.32520299  1
  Cr  Cr12  1  0.32447127  0.32413627  -0.00852527  1
  Cr  Cr13  1  0.49080414  0.49147045  0.15780396  1
  Cr  Cr14  1  0.32520552  0.32372756  0.32520402  1
  Cr  Cr15  1  0.32446210  0.65813747  -0.00852530  1
  Cr  Cr16  1  0.49135868  0.82391588  0.15724644  1
  Cr  Cr17  1  0.32413712  0.65781249  0.32413322  1
  Cr  Cr18  1  0.65746960  -0.00886207  -0.00852527  1
  Cr  Cr19  1  0.82480378  0.15747081  0.15780396  1
  Cr  Cr20  1  0.65706089  -0.00812781  0.32520402  1
  Cr  Cr21  1  0.65853890  0.32520556  0.99040297  1
  Cr  Cr22  1  0.82424923  0.49091589  0.15797279  1
  Cr  Cr23  1  0.65706902  0.32373569  0.32520495  1
  Cr  Cr24  1  0.65854703  0.65706907  0.99040390  1
  Cr  Cr25  1  0.82424924  0.82502537  0.15836148  1
  Cr  Cr26  1  0.65813832  0.65780332  0.32413320  1
  Cr  Cr27  1  0.15860064  0.15802534  0.49135711  1
  Cr  Cr28  1  -0.00852855  0.99080314  0.65780396  1
  Cr  Cr29  1  0.15742099  0.15785349  0.82480843  1
  Cr  Cr30  1  0.15818693  0.49108777  0.49079949  1
  Cr  Cr31  1  0.99039945  0.32554159  0.65887731  1
  Cr  Cr32  1  0.15700728  0.49091591  0.82425081  1
  Cr  Cr33  1  0.15763240  0.82429907  0.49135710  1
  Cr  Cr34  1  0.99040152  0.65706819  0.65853631  1
  Cr  Cr35  1  0.15797552  0.82464219  0.82425083  1
  Ni  Ni36  1  0.49104530  0.15771197  0.49104319  1
  Cr  Cr37  1  0.32520640  -0.00812693  0.65707161  1
  Cr  Cr38  1  0.49118675  0.15785342  0.82442004  1
  Cr  Cr39  1  0.49080391  0.49011485  0.49079959  1
  Cr  Cr40  1  0.32520848  0.32339966  0.65673062  1
  Cr  Cr41  1  0.49215974  0.49147067  0.82480834  1
  Cr  Cr42  1  0.49135868  0.82526730  0.49135711  1
  Cr  Cr43  1  0.32413647  0.65813812  0.65780396  1
  Cr  Cr44  1  0.49118682  0.82408766  0.82480843  1
  Cr  Cr45  1  0.82344819  0.15747058  0.49079959  1
  Cr  Cr46  1  0.65673300  -0.00812486  0.65673062  1
  Cr  Cr47  1  0.82480401  0.15882640  0.82480834  1
  Cr  Cr48  1  0.82442117  0.49108784  0.49118789  1
  Cr  Cr49  1  0.65780396  0.32447063  0.65780396  1
  Ni  Ni50  1  0.82456262  0.49122929  0.82456473  1
  Cr  Cr51  1  0.82442110  0.82485360  0.49079949  1
  Cr  Cr52  1  0.65887492  0.65706611  0.65887731  1
  Cr  Cr53  1  0.82424925  0.82367395  0.82425081  1
" 