7361,Ni97Cr3_4,-200.684752464799, 201.393398368318,Ni97Cr3,"# generated using pymatgen
 data_Cr26Ni
_symmetry_space_group_name_H-M   'P 1'
_cell_length_a   7.60135149
_cell_length_b   7.60135149
_cell_length_c   10.74993438
_cell_angle_alpha   90.00000000
_cell_angle_beta   90.00000000
_cell_angle_gamma   90.00000000
_symmetry_Int_Tables_number   1
_chemical_formula_structural   Cr26Ni
_chemical_formula_sum   'Cr52 Ni2'
_cell_volume   621.13706215
_cell_formula_units_Z   2
loop_
 _symmetry_equiv_pos_site_id
 _symmetry_equiv_pos_as_xyz
  1  'x, y, z'
loop_
 _atom_site_type_symbol
 _atom_site_label
 _atom_site_symmetry_multiplicity
 _atom_site_fract_x
 _atom_site_fract_y
 _atom_site_fract_z
 _atom_site_occupancy
  Cr  Cr0  1  0.99115592  0.99011180  -0.00883421  1
  Cr  Cr1  1  0.15817607  0.15748872  0.15783225  1
  Cr  Cr2  1  0.99082217  -0.00849048  0.32449933  1
  Cr  Cr3  1  -0.00883323  0.32555401  -0.00883421  1
  Cr  Cr4  1  0.15707069  0.49192756  0.15712528  1
  Cr  Cr5  1  -0.00807240  0.32491728  0.32560805  1
  Ni  Ni6  1  0.99116571  0.65783253  -0.00883421  1
  Cr  Cr7  1  0.15707064  0.82408096  0.15672353  1
  Cr  Cr8  1  -0.00807244  0.65707069  0.32520630  1
  Cr  Cr9  1  0.32445790  0.99111475  -0.00883421  1
  Cr  Cr10  1  0.49093617  0.15806208  0.15805810  1
  Cr  Cr11  1  0.32461317  0.99093583  0.32392305  1
  Cr  Cr12  1  0.32444716  0.32455109  -0.00883421  1
  Cr  Cr13  1  0.49150952  0.49082217  0.15783225  1
  Cr  Cr14  1  0.32350783  0.32549042  0.32503115  1
  Cr  Cr15  1  0.32344423  0.65783147  -0.00883421  1
  Cr  Cr16  1  0.49093583  0.82461317  0.15840852  1
  Cr  Cr17  1  0.32408096  0.65707064  0.32560805  1
  Cr  Cr18  1  0.65788353  0.99111471  -0.00883421  1
  Cr  Cr19  1  0.82438507  0.15806241  0.15840852  1
  Cr  Cr20  1  0.65806208  0.99093617  0.32427348  1
  Cr  Cr21  1  0.65788350  0.32454034  -0.00883421  1
  Cr  Cr22  1  0.82491728  0.49192760  0.15672353  1
  Cr  Cr23  1  0.65806241  0.32438507  0.32392305  1
  Cr  Cr24  1  0.65888645  0.65784233  -0.00883421  1
  Cr  Cr25  1  0.82549042  0.82350783  0.15730043  1
  Cr  Cr26  1  0.65748872  0.65817607  0.32449933  1
  Cr  Cr27  1  0.15784233  0.15888645  0.49116579  1
  Cr  Cr28  1  0.99082217  -0.00849048  0.65783225  1
  Cr  Cr29  1  0.15817607  0.15748872  0.82449933  1
  Ni  Ni30  1  0.15783253  0.49116571  0.49116579  1
  Cr  Cr31  1  -0.00807240  0.32491728  0.65672353  1
  Cr  Cr32  1  0.15707069  0.49192756  0.82520630  1
  Cr  Cr33  1  0.15783147  0.82344423  0.49116579  1
  Cr  Cr34  1  -0.00807244  0.65707069  0.65712528  1
  Cr  Cr35  1  0.15707064  0.82408096  0.82560805  1
  Cr  Cr36  1  0.49111471  0.15788353  0.49116579  1
  Cr  Cr37  1  0.32461317  0.99093583  0.65840852  1
  Cr  Cr38  1  0.49093617  0.15806208  0.82427348  1
  Cr  Cr39  1  0.49011180  0.49115592  0.49116579  1
  Cr  Cr40  1  0.32350783  0.32549042  0.65730043  1
  Cr  Cr41  1  0.49150952  0.49082217  0.82449933  1
  Cr  Cr42  1  0.49111475  0.82445790  0.49116579  1
  Cr  Cr43  1  0.32408096  0.65707064  0.65672353  1
  Cr  Cr44  1  0.49093583  0.82461317  0.82392305  1
  Cr  Cr45  1  0.82454034  0.15788350  0.49116579  1
  Cr  Cr46  1  0.65806208  0.99093617  0.65805810  1
  Cr  Cr47  1  0.82438507  0.15806241  0.82392305  1
  Cr  Cr48  1  0.82555401  0.49116677  0.49116579  1
  Cr  Cr49  1  0.65806241  0.32438507  0.65840852  1
  Cr  Cr50  1  0.82491728  0.49192760  0.82560805  1
  Cr  Cr51  1  0.82455109  0.82444716  0.49116579  1
  Cr  Cr52  1  0.65748872  0.65817607  0.65783225  1
  Cr  Cr53  1  0.82549042  0.82350783  0.82503115  1
" 