5141,Ni97Fe2Cr0_5,-239.851181364697, 180.286105775351,Ni97Fe2Cr0,"# generated using pymatgen
 data_CrFeNi52
_symmetry_space_group_name_H-M   'P 1'
_cell_length_a   7.46066161
_cell_length_b   7.46066161
_cell_length_c   10.55096883
_cell_angle_alpha   90.00000000
_cell_angle_beta   90.00000000
_cell_angle_gamma   90.00000000
_symmetry_Int_Tables_number   1
_chemical_formula_structural   CrFeNi52
_chemical_formula_sum   'Cr1 Fe1 Ni52'
_cell_volume   587.28245228
_cell_formula_units_Z   1
loop_
 _symmetry_equiv_pos_site_id
 _symmetry_equiv_pos_as_xyz
  1  'x, y, z'
loop_
 _atom_site_type_symbol
 _atom_site_label
 _atom_site_symmetry_multiplicity
 _atom_site_fract_x
 _atom_site_fract_y
 _atom_site_fract_z
 _atom_site_occupancy
  Ni  Ni0  1  1.00041881  1.00042216  0.00070777  1
  Ni  Ni1  1  0.16814502  0.16596623  0.16623384  1
  Ni  Ni2  1  1.00030363  0.99883264  0.33376131  1
  Ni  Ni3  1  1.00034753  0.33368087  1.00022927  1
  Ni  Ni4  1  0.16814606  0.50147939  0.16553039  1
  Cr  Cr5  1  0.00057116  0.33390449  0.33376131  1
  Ni  Ni6  1  1.00034214  0.66717527  0.00066804  1
  Ni  Ni7  1  0.16702745  0.83382684  0.16730663  1
  Ni  Ni8  1  0.00056250  0.66855631  0.33376131  1
  Ni  Ni9  1  0.33393676  1.00026173  0.00047645  1
  Ni  Ni10  1  0.50017418  0.16740941  0.16696288  1
  Ni  Ni11  1  0.33406603  1.00024832  0.33376131  1
  Ni  Ni12  1  0.33384194  0.33367547  0.00066804  1
  Ni  Ni13  1  0.50049351  0.50036079  0.16730663  1
  Ni  Ni14  1  0.33522298  0.33389583  0.33376131  1
  Ni  Ni15  1  0.33400911  0.66734244  0.00043306  1
  Ni  Ni16  1  0.50017892  0.83351225  0.16672880  1
  Ni  Ni17  1  0.33380496  0.66713829  0.33376131  1
  Ni  Ni18  1  0.66693041  1.00026374  1.00014500  1
  Ni  Ni19  1  0.83296064  0.16629398  0.16588131  1
  Ni  Ni20  1  0.66691432  1.00024765  0.33376131  1
  Ni  Ni21  1  0.66708883  0.33375215  0.00070777  1
  Ni  Ni22  1  0.83263290  0.50147835  0.16623384  1
  Ni  Ni23  1  0.66549930  0.33363696  0.33376131  1
  Ni  Ni24  1  0.66692840  0.66727010  0.00047645  1
  Ni  Ni25  1  0.83407607  0.83350751  0.16696288  1
  Ni  Ni26  1  0.66691498  0.66739936  0.33376131  1
  Ni  Ni27  1  0.16814502  0.16596623  0.50128878  1
  Ni  Ni28  1  1.00041881  1.00042216  0.66681485  1
  Ni  Ni29  1  0.16711015  0.16627467  0.83376131  1
  Ni  Ni30  1  0.16814606  0.50147939  0.50199223  1
  Ni  Ni31  1  1.00034753  0.33368087  0.66729335  1
  Fe  Fe32  1  0.16715286  0.50048620  0.83376131  1
  Ni  Ni33  1  0.16702745  0.83382684  0.50021599  1
  Ni  Ni34  1  1.00034214  0.66717527  0.66685459  1
  Ni  Ni35  1  0.16693786  0.83456532  0.83376131  1
  Ni  Ni36  1  0.50017418  0.16740941  0.50055975  1
  Ni  Ni37  1  0.33393676  1.00026173  0.66704617  1
  Ni  Ni38  1  0.49988513  0.16779450  0.83376131  1
  Ni  Ni39  1  0.50049351  0.50036079  0.50021599  1
  Ni  Ni40  1  0.33384194  0.33367547  0.66685459  1
  Ni  Ni41  1  0.50123198  0.50027119  0.83376131  1
  Ni  Ni42  1  0.50017892  0.83351225  0.50079382  1
  Ni  Ni43  1  0.33400911  0.66734244  0.66708957  1
  Ni  Ni44  1  0.49988475  0.83321808  0.83376131  1
  Ni  Ni45  1  0.83296064  0.16629398  0.50164131  1
  Ni  Ni46  1  0.66693041  1.00026374  0.66737762  1
  Ni  Ni47  1  0.83428838  0.16762172  0.83376131  1
  Ni  Ni48  1  0.83263290  0.50147835  0.50128878  1
  Ni  Ni49  1  0.66708883  0.33375215  0.66681485  1
  Ni  Ni50  1  0.83294133  0.50044348  0.83376131  1
  Ni  Ni51  1  0.83407607  0.83350751  0.50055975  1
  Ni  Ni52  1  0.66692840  0.66727010  0.66704617  1
  Ni  Ni53  1  0.83446117  0.83321847  0.83376131  1
" 