3105,Ni97Fe2Cr0_16,-239.845670116437, 180.140229200916,Ni97Fe2Cr0,"# generated using pymatgen
 data_CrFeNi52
_symmetry_space_group_name_H-M   'P 1'
_cell_length_a   7.46075732
_cell_length_b   7.46075732
_cell_length_c   10.55110418
_cell_angle_alpha   90.00000000
_cell_angle_beta   90.00000000
_cell_angle_gamma   90.00000000
_symmetry_Int_Tables_number   1
_chemical_formula_structural   CrFeNi52
_chemical_formula_sum   'Cr1 Fe1 Ni52'
_cell_volume   587.30505388
_cell_formula_units_Z   1
loop_
 _symmetry_equiv_pos_site_id
 _symmetry_equiv_pos_as_xyz
  1  'x, y, z'
loop_
 _atom_site_type_symbol
 _atom_site_label
 _atom_site_symmetry_multiplicity
 _atom_site_fract_x
 _atom_site_fract_y
 _atom_site_fract_z
 _atom_site_occupancy
  Fe  Fe0  1  0.00042156  0.00042156  0.00084508  1
  Ni  Ni1  1  0.16720717  0.16720717  0.16713328  1
  Ni  Ni2  1  1.00042156  1.00042156  0.33285590  1
  Ni  Ni3  1  0.00042156  0.33455850  1.00022180  1
  Ni  Ni4  1  0.16693762  0.50042156  0.16716594  1
  Ni  Ni5  1  0.00042156  0.33383816  0.33400413  1
  Ni  Ni6  1  1.00042156  0.66628462  1.00022180  1
  Ni  Ni7  1  0.16720717  0.83363595  0.16713328  1
  Ni  Ni8  1  0.00042156  0.66700495  0.33400413  1
  Ni  Ni9  1  0.33455850  0.00042156  1.00022180  1
  Ni  Ni10  1  0.50042156  0.16693762  0.16716594  1
  Ni  Ni11  1  0.33383816  0.00042156  0.33400413  1
  Ni  Ni12  1  0.33339156  0.33339156  0.00045687  1
  Ni  Ni13  1  0.50042156  0.50042156  0.16681938  1
  Ni  Ni14  1  0.33368059  0.33368059  0.33342269  1
  Ni  Ni15  1  0.33339156  0.66745156  0.00045687  1
  Ni  Ni16  1  0.50042156  0.83390550  0.16716594  1
  Ni  Ni17  1  0.33368059  0.66716252  0.33342269  1
  Ni  Ni18  1  0.66628462  1.00042156  1.00022180  1
  Ni  Ni19  1  0.83363595  0.16720717  0.16713328  1
  Ni  Ni20  1  0.66700495  0.00042156  0.33400413  1
  Ni  Ni21  1  0.66745156  0.33339156  0.00045687  1
  Ni  Ni22  1  0.83390550  0.50042156  0.16716594  1
  Ni  Ni23  1  0.66716252  0.33368059  0.33342269  1
  Ni  Ni24  1  0.66745156  0.66745156  0.00045687  1
  Ni  Ni25  1  0.83363595  0.83363595  0.16713328  1
  Ni  Ni26  1  0.66716252  0.66716252  0.33342269  1
  Ni  Ni27  1  0.16802555  0.16802555  0.49948545  1
  Cr  Cr28  1  0.00042156  0.00042156  0.66750723  1
  Ni  Ni29  1  0.16817152  0.16817152  0.83462879  1
  Ni  Ni30  1  0.16716177  0.50042156  0.50058640  1
  Ni  Ni31  1  1.00042156  0.33537678  0.66706134  1
  Ni  Ni32  1  0.16703822  0.50042156  0.83351656  1
  Ni  Ni33  1  0.16802555  0.83281757  0.49948545  1
  Ni  Ni34  1  1.00042156  0.66546634  0.66706134  1
  Ni  Ni35  1  0.16817152  0.83267160  0.83462879  1
  Ni  Ni36  1  0.50042156  0.16716177  0.50058640  1
  Ni  Ni37  1  0.33537678  1.00042156  0.66706134  1
  Ni  Ni38  1  0.50042156  0.16703822  0.83351656  1
  Ni  Ni39  1  0.50042156  0.50042156  0.50035491  1
  Ni  Ni40  1  0.33368519  0.33368519  0.66738963  1
  Ni  Ni41  1  0.50042156  0.50042156  0.83409017  1
  Ni  Ni42  1  0.50042156  0.83368135  0.50058640  1
  Ni  Ni43  1  0.33368519  0.66715793  0.66738963  1
  Ni  Ni44  1  0.50042156  0.83380490  0.83351656  1
  Ni  Ni45  1  0.83281757  0.16802555  0.49948545  1
  Ni  Ni46  1  0.66546634  1.00042156  0.66706134  1
  Ni  Ni47  1  0.83267160  0.16817152  0.83462879  1
  Ni  Ni48  1  0.83368135  0.50042156  0.50058640  1
  Ni  Ni49  1  0.66715793  0.33368519  0.66738963  1
  Ni  Ni50  1  0.83380490  0.50042156  0.83351656  1
  Ni  Ni51  1  0.83281757  0.83281757  0.49948545  1
  Ni  Ni52  1  0.66715793  0.66715793  0.66738963  1
  Ni  Ni53  1  0.83267160  0.83267160  0.83462879  1
" 