745,Ni97Cr3_5,-200.684752464799, 201.393398365046,Ni97Cr3,"# generated using pymatgen
 data_Cr26Ni
_symmetry_space_group_name_H-M   'P 1'
_cell_length_a   7.60135149
_cell_length_b   7.60135149
_cell_length_c   10.74993438
_cell_angle_alpha   90.00000000
_cell_angle_beta   90.00000000
_cell_angle_gamma   90.00000000
_symmetry_Int_Tables_number   1
_chemical_formula_structural   Cr26Ni
_chemical_formula_sum   'Cr52 Ni2'
_cell_volume   621.13706215
_cell_formula_units_Z   2
loop_
 _symmetry_equiv_pos_site_id
 _symmetry_equiv_pos_as_xyz
  1  'x, y, z'
loop_
 _atom_site_type_symbol
 _atom_site_label
 _atom_site_symmetry_multiplicity
 _atom_site_fract_x
 _atom_site_fract_y
 _atom_site_fract_z
 _atom_site_occupancy
  Cr  Cr0  1  0.99116481  -0.00777932  -0.00883421  1
  Cr  Cr1  1  0.15741430  0.15859427  0.15672353  1
  Cr  Cr2  1  0.99040397  -0.00841605  0.32560805  1
  Ni  Ni3  1  -0.00883414  0.32449920  -0.00883421  1
  Cr  Cr4  1  0.15684116  0.49017449  0.15730043  1
  Cr  Cr5  1  0.99040402  0.32373735  0.32520630  1
  Cr  Cr6  1  -0.00882434  0.65677846  -0.00883421  1
  Cr  Cr7  1  0.15794651  0.82472908  0.15840852  1
  Cr  Cr8  1  -0.00849059  0.65817619  0.32449933  1
  Cr  Cr9  1  0.32444808  -0.00879299  -0.00883421  1
  Cr  Cr10  1  0.49082206  0.15748884  0.15783225  1
  Cr  Cr11  1  0.32426917  0.99105174  0.32392305  1
  Cr  Cr12  1  0.32344513  0.32450900  -0.00883421  1
  Cr  Cr13  1  0.49139574  0.49127984  0.15840852  1
  Cr  Cr14  1  0.32484285  0.32484274  0.32449933  1
  Cr  Cr15  1  0.32444805  0.65778138  -0.00883421  1
  Cr  Cr16  1  0.49139541  0.82472874  0.15805810  1
  Cr  Cr17  1  0.32426950  0.65760284  0.32427348  1
  Cr  Cr18  1  0.65788442  -0.00878225  -0.00883421  1
  Cr  Cr19  1  0.82526089  0.15859423  0.15712528  1
  Cr  Cr20  1  0.65882375  -0.00784292  0.32503115  1
  Cr  Cr21  1  0.65888734  0.32449814  -0.00883421  1
  Cr  Cr22  1  0.82526094  0.49074763  0.15672353  1
  Cr  Cr23  1  0.65825061  0.32373731  0.32560805  1
  Cr  Cr24  1  0.65787368  0.65778141  -0.00883421  1
  Cr  Cr25  1  0.82415550  0.82415539  0.15783225  1
  Cr  Cr26  1  0.65771840  0.65760250  0.32392305  1
  Cr  Cr27  1  0.15677757  0.15783344  0.49116579  1
  Cr  Cr28  1  0.99040397  -0.00841605  0.65672353  1
  Cr  Cr29  1  0.15741430  0.15859427  0.82560805  1
  Cr  Cr30  1  0.15778049  0.49111383  0.49116579  1
  Cr  Cr31  1  0.99040402  0.32373735  0.65712528  1
  Cr  Cr32  1  0.15684116  0.49017449  0.82503115  1
  Cr  Cr33  1  0.15779124  0.82455016  0.49116579  1
  Cr  Cr34  1  -0.00849059  0.65817619  0.65783225  1
  Cr  Cr35  1  0.15794651  0.82472908  0.82392305  1
  Cr  Cr36  1  0.49221978  0.15782258  0.49116579  1
  Cr  Cr37  1  0.32426917  0.99105174  0.65840852  1
  Cr  Cr38  1  0.49082206  0.15748884  0.82449933  1
  Cr  Cr39  1  0.49121683  0.49112457  0.49116579  1
  Cr  Cr40  1  0.32484285  0.32484274  0.65783225  1
  Cr  Cr41  1  0.49139574  0.49127984  0.82392305  1
  Cr  Cr42  1  0.49121686  0.82455020  0.49116579  1
  Cr  Cr43  1  0.32426950  0.65760284  0.65805810  1
  Cr  Cr44  1  0.49139541  0.82472874  0.82427348  1
  Ni  Ni45  1  0.82449905  0.15783238  0.49116579  1
  Cr  Cr46  1  0.65882375  -0.00784292  0.65730043  1
  Cr  Cr47  1  0.82526089  0.15859423  0.82520630  1
  Cr  Cr48  1  0.82450011  0.49011090  0.49116579  1
  Cr  Cr49  1  0.65825061  0.32373731  0.65672353  1
  Cr  Cr50  1  0.82526094  0.49074763  0.82560805  1
  Cr  Cr51  1  0.82448925  0.82555312  0.49116579  1
  Cr  Cr52  1  0.65771840  0.65760250  0.65840852  1
  Cr  Cr53  1  0.82415550  0.82415539  0.82449933  1
" 