393,Ni97Fe2Cr0_8,-239.85015431452, 180.255394007584,Ni97Fe2Cr0,"# generated using pymatgen
 data_CrFeNi52
_symmetry_space_group_name_H-M   'P 1'
_cell_length_a   7.46075242
_cell_length_b   7.46075242
_cell_length_c   10.55109726
_cell_angle_alpha   90.00000000
_cell_angle_beta   90.00000000
_cell_angle_gamma   90.00000000
_symmetry_Int_Tables_number   1
_chemical_formula_structural   CrFeNi52
_chemical_formula_sum   'Cr1 Fe1 Ni52'
_cell_volume   587.30389815
_cell_formula_units_Z   1
loop_
 _symmetry_equiv_pos_site_id
 _symmetry_equiv_pos_as_xyz
  1  'x, y, z'
loop_
 _atom_site_type_symbol
 _atom_site_label
 _atom_site_symmetry_multiplicity
 _atom_site_fract_x
 _atom_site_fract_y
 _atom_site_fract_z
 _atom_site_occupancy
  Ni  Ni0  1  0.00098219  0.99989400  0.00042189  1
  Ni  Ni1  1  0.16724354  0.16725725  0.16713609  1
  Ni  Ni2  1  0.00172679  0.00122196  0.33253669  1
  Ni  Ni3  1  0.00080756  0.33429846  0.00042189  1
  Ni  Ni4  1  0.16716955  0.50017038  0.16709272  1
  Ni  Ni5  1  0.00060505  0.33400796  0.33362244  1
  Ni  Ni6  1  0.99963068  0.66707211  0.00042189  1
  Ni  Ni7  1  0.16699443  0.83384438  0.16733367  1
  Ni  Ni8  1  0.00138124  0.66603721  0.33291014  1
  Ni  Ni9  1  0.33375522  0.00107104  0.00042189  1
  Ni  Ni10  1  0.50026690  0.16725725  0.16713609  1
  Ni  Ni11  1  0.33375522  0.00042402  0.33396905  1
  Ni  Ni12  1  0.33375522  0.33294793  0.00042189  1
  Ni  Ni13  1  0.50034089  0.50017038  0.16709272  1
  Ni  Ni14  1  0.33375522  0.33368492  0.33373539  1
  Fe  Fe15  1  0.33375522  0.66723775  0.00042189  1
  Ni  Ni16  1  0.50051602  0.83384438  0.16733367  1
  Ni  Ni17  1  0.33375522  0.66715222  0.33325374  1
  Ni  Ni18  1  0.66652825  0.99989400  0.00042189  1
  Ni  Ni19  1  0.83375522  0.16708697  0.16703654  1
  Ni  Ni20  1  0.66578365  0.00122196  0.33253669  1
  Ni  Ni21  1  0.66670288  0.33429846  0.00042189  1
  Ni  Ni22  1  0.83375522  0.50041402  0.16736891  1
  Ni  Ni23  1  0.66690539  0.33400796  0.33362244  1
  Ni  Ni24  1  0.66787976  0.66707211  0.00042189  1
  Ni  Ni25  1  0.83375522  0.83376805  0.16693599  1
  Ni  Ni26  1  0.66612920  0.66603721  0.33291014  1
  Ni  Ni27  1  0.16714312  0.16726871  0.50042189  1
  Ni  Ni28  1  0.00172679  0.00122196  0.66830709  1
  Ni  Ni29  1  0.16724354  0.16725725  0.83370769  1
  Ni  Ni30  1  0.16740677  0.50037943  0.50042189  1
  Ni  Ni31  1  0.00060505  0.33400796  0.66722133  1
  Ni  Ni32  1  0.16716955  0.50017038  0.83375106  1
  Ni  Ni33  1  0.16882107  0.83361587  0.50042189  1
  Ni  Ni34  1  0.00138124  0.66603721  0.66793363  1
  Ni  Ni35  1  0.16699443  0.83384438  0.83351010  1
  Ni  Ni36  1  0.50036732  0.16726871  0.50042189  1
  Ni  Ni37  1  0.33375522  0.00042402  0.66687472  1
  Ni  Ni38  1  0.50026690  0.16725725  0.83370769  1
  Ni  Ni39  1  0.50010367  0.50037943  0.50042189  1
  Ni  Ni40  1  0.33375522  0.33368492  0.66710839  1
  Ni  Ni41  1  0.50034089  0.50017038  0.83375106  1
  Ni  Ni42  1  0.49868937  0.83361587  0.50042189  1
  Ni  Ni43  1  0.33375522  0.66715222  0.66759003  1
  Ni  Ni44  1  0.50051602  0.83384438  0.83351010  1
  Ni  Ni45  1  0.83375522  0.16868285  0.50042189  1
  Ni  Ni46  1  0.66578365  0.00122196  0.66830709  1
  Ni  Ni47  1  0.83375522  0.16708697  0.83380724  1
  Ni  Ni48  1  0.83375522  0.49870093  0.50042189  1
  Ni  Ni49  1  0.66690539  0.33400796  0.66722133  1
  Ni  Ni50  1  0.83375522  0.50041402  0.83347486  1
  Cr  Cr51  1  0.83375522  0.83386732  0.50042189  1
  Ni  Ni52  1  0.66612920  0.66603721  0.66793363  1
  Ni  Ni53  1  0.83375522  0.83376805  0.83390778  1
" 