8980,Ni97Fe2Cr0_12,-239.840677091791, 180.234391500772,Ni97Fe2Cr0,"# generated using pymatgen
 data_CrFeNi52
_symmetry_space_group_name_H-M   'P 1'
_cell_length_a   7.46060115
_cell_length_b   7.46060115
_cell_length_c   10.55088333
_cell_angle_alpha   90.00000000
_cell_angle_beta   90.00000000
_cell_angle_gamma   90.00000000
_symmetry_Int_Tables_number   1
_chemical_formula_structural   CrFeNi52
_chemical_formula_sum   'Cr1 Fe1 Ni52'
_cell_volume   587.26817467
_cell_formula_units_Z   1
loop_
 _symmetry_equiv_pos_site_id
 _symmetry_equiv_pos_as_xyz
  1  'x, y, z'
loop_
 _atom_site_type_symbol
 _atom_site_label
 _atom_site_symmetry_multiplicity
 _atom_site_fract_x
 _atom_site_fract_y
 _atom_site_fract_z
 _atom_site_occupancy
  Ni  Ni0  1  0.99943064  0.99942226  0.00123246  1
  Ni  Ni1  1  0.16763515  0.16656225  0.16732610  1
  Ni  Ni2  1  1.00041141  1.00042305  0.33384104  1
  Ni  Ni3  1  0.99938773  0.33480967  0.00160828  1
  Ni  Ni4  1  0.16763847  0.50098868  0.16690267  1
  Ni  Ni5  1  1.00041284  0.33378456  0.33349043  1
  Ni  Ni6  1  0.00047368  0.66709186  1.00019582  1
  Ni  Ni7  1  0.16632220  0.83375277  0.16689759  1
  Ni  Ni8  1  0.00059323  0.66708880  0.33384123  1
  Ni  Ni9  1  0.33474882  0.99944859  0.00133024  1
  Ni  Ni10  1  0.50044463  0.16787520  0.16689759  1
  Ni  Ni11  1  0.33370521  0.00049219  0.33378631  1
  Ni  Ni12  1  0.33477514  0.33476676  0.00123246  1
  Ni  Ni13  1  0.50061275  0.49979405  0.16713655  1
  Ni  Ni14  1  0.33377435  0.33378599  0.33384104  1
  Ni  Ni15  1  0.33363614  0.66702111  1.00025109  1
  Fe  Fe16  1  0.50066380  0.83353360  0.16724258  1
  Ni  Ni17  1  0.33351470  0.66701049  0.33379583  1
  Ni  Ni18  1  0.66717629  0.00056126  1.00025109  1
  Ni  Ni19  1  0.83320872  0.16655893  0.16690267  1
  Ni  Ni20  1  0.66718691  0.00068270  0.33379583  1
  Ni  Ni21  1  0.66710554  0.33372372  1.00019582  1
  Ni  Ni22  1  0.83305148  0.50114592  0.16713059  1
  Ni  Ni23  1  0.66710860  0.33360417  0.33384123  1
  Ni  Ni24  1  0.66717692  0.66702048  0.00047712  1
  Ni  Ni25  1  0.83440335  0.83358465  0.16713655  1
  Ni  Ni26  1  0.66719590  0.66700150  0.33380471  1
  Ni  Ni27  1  0.16734288  0.16685452  0.49989709  1
  Ni  Ni28  1  0.99937840  0.99951269  0.66618836  1
  Cr  Cr29  1  0.16728603  0.16691137  0.83400513  1
  Ni  Ni30  1  0.16734128  0.50069557  0.50032417  1
  Ni  Ni31  1  0.99936944  0.33482796  0.66617814  1
  Ni  Ni32  1  0.16734715  0.50224648  0.83407108  1
  Ni  Ni33  1  0.16703301  0.83375102  0.50067218  1
  Ni  Ni34  1  0.00048354  0.66696841  0.66725984  1
  Ni  Ni35  1  0.16702559  0.83223604  0.83371718  1
  Ni  Ni36  1  0.50044638  0.16716439  0.50067218  1
  Ni  Ni37  1  0.33495276  0.99924464  0.66619684  1
  Ni  Ni38  1  0.50196136  0.16717181  0.83371718  1
  Ni  Ni39  1  0.50060892  0.50054002  0.50044121  1
  Ni  Ni40  1  0.33468471  0.33481900  0.66618836  1
  Ni  Ni41  1  0.50061195  0.50054117  0.83371771  1
  Ni  Ni42  1  0.50060626  0.83359114  0.49973077  1
  Ni  Ni43  1  0.33385787  0.66724509  0.66726059  1
  Ni  Ni44  1  0.50061241  0.83358499  0.83443178  1
  Ni  Ni45  1  0.83350183  0.16685612  0.50032417  1
  Ni  Ni46  1  0.66695231  1.00033953  0.66726059  1
  Ni  Ni47  1  0.83195092  0.16685025  0.83407108  1
  Ni  Ni48  1  0.83334882  0.50084858  0.50010015  1
  Ni  Ni49  1  0.66722899  0.33371386  0.66725984  1
  Ni  Ni50  1  0.83333480  0.50086260  0.83406766  1
  Ni  Ni51  1  0.83365738  0.83358848  0.50044121  1
  Ni  Ni52  1  0.66695400  0.66724340  0.66703267  1
  Ni  Ni53  1  0.83365623  0.83358545  0.83371771  1
" 