3932,Ni97Cr3_12,-200.691763381511, 201.274132307255,Ni97Cr3,"# generated using pymatgen
 data_Cr26Ni
_symmetry_space_group_name_H-M   'P 1'
_cell_length_a   7.60104688
_cell_length_b   7.60104688
_cell_length_c   10.74950358
_cell_angle_alpha   90.00000000
_cell_angle_beta   90.00000000
_cell_angle_gamma   90.00000000
_symmetry_Int_Tables_number   1
_chemical_formula_structural   Cr26Ni
_chemical_formula_sum   'Cr52 Ni2'
_cell_volume   621.06239001
_cell_formula_units_Z   2
loop_
 _symmetry_equiv_pos_site_id
 _symmetry_equiv_pos_as_xyz
  1  'x, y, z'
loop_
 _atom_site_type_symbol
 _atom_site_label
 _atom_site_symmetry_multiplicity
 _atom_site_fract_x
 _atom_site_fract_y
 _atom_site_fract_z
 _atom_site_occupancy
  Cr  Cr0  1  -0.00702007  -0.00806398  -0.00806511  1
  Ni  Ni1  1  0.15870391  0.15700037  0.15700208  1
  Cr  Cr2  1  -0.00840430  -0.00806421  0.32411325  1
  Cr  Cr3  1  -0.00801375  0.32371803  -0.00806500  1
  Cr  Cr4  1  0.15751109  0.49013982  0.15819632  1
  Cr  Cr5  1  -0.00783852  0.32354280  0.32354526  1
  Cr  Cr6  1  0.99089442  0.65790347  0.99084097  1
  Cr  Cr7  1  0.15860269  0.82631326  0.15710273  1
  Cr  Cr8  1  0.99106906  0.65807841  0.32463963  1
  Ni  Ni9  1  0.32366704  -0.00796276  -0.00796447  1
  Cr  Cr10  1  0.48939102  0.15710159  0.15710273  1
  Cr  Cr11  1  0.32376808  -0.00806380  0.32371815  1
  Cr  Cr12  1  0.32376826  0.32272435  -0.00806511  1
  Cr  Cr13  1  0.49147653  0.49113415  0.15819664  1
  Cr  Cr14  1  0.32376849  0.32410858  0.32411325  1
  Cr  Cr15  1  0.32485986  0.65889779  0.99084129  1
  Cr  Cr16  1  0.49038470  0.82531958  0.15710261  1
  Cr  Cr17  1  0.32486043  0.65751127  0.32520846  1
  Cr  Cr18  1  0.65680649  0.99084442  0.99084129  1
  Cr  Cr19  1  0.82556446  0.15819319  0.15819632  1
  Cr  Cr20  1  0.65819301  0.99084385  0.32520846  1
  Cr  Cr21  1  0.65780081  0.32480986  0.99084097  1
  Cr  Cr22  1  0.82456929  0.49113499  0.15785026  1
  Cr  Cr23  1  0.65762587  0.32463522  0.32463963  1
  Cr  Cr24  1  0.65780165  0.65790262  -0.00881264  1
  Cr  Cr25  1  0.82457013  0.82422775  0.15819664  1
  Cr  Cr26  1  0.65762684  0.65807744  0.32429287  1
  Cr  Cr27  1  0.15785296  0.15785132  0.49113393  1
  Cr  Cr28  1  0.99084480  -0.00881375  0.65750712  1
  Cr  Cr29  1  0.15860287  0.15710141  0.82531946  1
  Cr  Cr30  1  0.15784530  0.49152732  0.49153084  1
  Cr  Cr31  1  -0.00858841  0.32429269  0.65807620  1
  Cr  Cr32  1  0.15751052  0.49152634  0.82382915  1
  Cr  Cr33  1  0.15785292  0.82417813  0.49153050  1
  Cr  Cr34  1  -0.00859602  0.65807752  0.65807626  1
  Cr  Cr35  1  0.15860246  0.82492903  0.82492436  1
  Cr  Cr36  1  0.49152615  0.15785136  0.49153050  1
  Cr  Cr37  1  0.32451798  -0.00881370  0.65790368  1
  Cr  Cr38  1  0.49077525  0.15710182  0.82492436  1
  Cr  Cr39  1  0.49096697  0.49096009  0.49096136  1
  Cr  Cr40  1  0.32451803  0.32485948  0.65750712  1
  Cr  Cr41  1  0.49130189  0.49095921  0.82439798  1
  Cr  Cr42  1  0.49095936  0.82474492  0.49096141  1
  Cr  Cr43  1  0.32452564  0.65751029  0.65750678  1
  Cr  Cr44  1  0.49020947  0.82549481  0.82549235  1
  Cr  Cr45  1  0.82417696  0.15785898  0.49153084  1
  Cr  Cr46  1  0.65819399  0.99117863  0.65750678  1
  Cr  Cr47  1  0.82417794  0.15819376  0.82382915  1
  Cr  Cr48  1  0.82474414  0.49096014  0.49096136  1
  Cr  Cr49  1  0.65762676  0.32430030  0.65807626  1
  Cr  Cr50  1  0.82474411  0.49096017  0.82474474  1
  Cr  Cr51  1  0.82474419  0.82473731  0.49096136  1
  Cr  Cr52  1  0.65762681  0.65807747  0.65807626  1
  Cr  Cr53  1  0.82474507  0.82440239  0.82439798  1
" 