6627,Ni97Fe2Cr0_3,-239.85015431452, 180.255394005352,Ni97Fe2Cr0,"# generated using pymatgen
 data_CrFeNi52
_symmetry_space_group_name_H-M   'P 1'
_cell_length_a   7.46075242
_cell_length_b   7.46075242
_cell_length_c   10.55109726
_cell_angle_alpha   90.00000000
_cell_angle_beta   90.00000000
_cell_angle_gamma   90.00000000
_symmetry_Int_Tables_number   1
_chemical_formula_structural   CrFeNi52
_chemical_formula_sum   'Cr1 Fe1 Ni52'
_cell_volume   587.30389815
_cell_formula_units_Z   1
loop_
 _symmetry_equiv_pos_site_id
 _symmetry_equiv_pos_as_xyz
  1  'x, y, z'
loop_
 _atom_site_type_symbol
 _atom_site_label
 _atom_site_symmetry_multiplicity
 _atom_site_fract_x
 _atom_site_fract_y
 _atom_site_fract_z
 _atom_site_occupancy
  Ni  Ni0  1  1.00025319  1.00026690  0.00046942  1
  Ni  Ni1  1  0.16628849  0.16578365  0.16587002  1
  Ni  Ni2  1  1.00024173  1.00036732  0.33375522  1
  Ni  Ni3  1  0.00042347  0.33375522  1.00036987  1
  Ni  Ni4  1  0.16628849  0.50172679  0.16587002  1
  Ni  Ni5  1  0.99882759  0.33375522  0.33375522  1
  Ni  Ni6  1  1.00025319  0.66724354  0.00046942  1
  Ni  Ni7  1  0.16708642  0.83375522  0.16730239  1
  Ni  Ni8  1  1.00024173  0.66714312  0.33375522  1
  Ni  Ni9  1  0.33366606  0.00051602  0.00066701  1
  Ni  Ni10  1  0.50147323  0.16612920  0.16624348  1
  Ni  Ni11  1  0.33389457  0.99868937  0.33375522  1
  Ni  Ni12  1  0.33374239  0.33375522  1.00026932  1
  Ni  Ni13  1  0.50147323  0.50138124  0.16624348  1
  Cr  Cr14  1  0.33364312  0.33375522  0.33375522  1
  Ni  Ni15  1  0.33366606  0.66699443  0.00066701  1
  Ni  Ni16  1  0.50035822  0.83375522  0.16658708  1
  Ni  Ni17  1  0.33389457  0.66882107  0.33375522  1
  Ni  Ni18  1  0.66734007  1.00034089  0.00042605  1
  Ni  Ni19  1  0.83350248  0.16690539  0.16695578  1
  Ni  Ni20  1  0.66713101  1.00010367  0.33375522  1
  Ni  Ni21  1  0.66709642  0.33375522  0.00070225  1
  Ni  Ni22  1  0.83350248  0.50060505  0.16695578  1
  Ni  Ni23  1  0.66880951  0.33375522  0.33375522  1
  Ni  Ni24  1  0.66734007  0.66716955  0.00042605  1
  Ni  Ni25  1  0.83382552  0.83375522  0.16706872  1
  Ni  Ni26  1  0.66713101  0.66740677  0.33375522  1
  Ni  Ni27  1  0.16628849  0.16578365  0.50164042  1
  Ni  Ni28  1  1.00025319  1.00026690  0.66704102  1
  Ni  Ni29  1  0.16761645  0.16652825  0.83375522  1
  Ni  Ni30  1  0.16628849  0.50172679  0.50164042  1
  Ni  Ni31  1  0.00042347  0.33375522  0.66714057  1
  Ni  Ni32  1  0.16761645  0.50098219  0.83375522  1
  Ni  Ni33  1  0.16708642  0.83375522  0.50020805  1
  Ni  Ni34  1  1.00025319  0.66724354  0.66704102  1
  Ni  Ni35  1  0.16643940  0.83375522  0.83375522  1
  Ni  Ni36  1  0.50147323  0.16612920  0.50126696  1
  Ni  Ni37  1  0.33366606  0.00051602  0.66684343  1
  Ni  Ni38  1  0.50043833  0.16787976  0.83375522  1
  Ni  Ni39  1  0.50147323  0.50138124  0.50126696  1
  Ni  Ni40  1  0.33374239  0.33375522  0.66724112  1
  Ni  Ni41  1  0.50043833  0.49963068  0.83375522  1
  Ni  Ni42  1  0.50035822  0.83375522  0.50092336  1
  Ni  Ni43  1  0.33366606  0.66699443  0.66684343  1
  Fe  Fe44  1  0.50027269  0.83375522  0.83375522  1
  Ni  Ni45  1  0.83350248  0.16690539  0.50055466  1
  Ni  Ni46  1  0.66734007  1.00034089  0.66708439  1
  Ni  Ni47  1  0.83321198  0.16670288  0.83375522  1
  Ni  Ni48  1  0.83350248  0.50060505  0.50055466  1
  Ni  Ni49  1  0.66709642  0.33375522  0.66680819  1
  Ni  Ni50  1  0.83321198  0.50080756  0.83375522  1
  Ni  Ni51  1  0.83382552  0.83375522  0.50044172  1
  Ni  Ni52  1  0.66734007  0.66716955  0.66708439  1
  Ni  Ni53  1  0.83456251  0.83375522  0.83375522  1
" 