3975,Ni97Fe3_5,-224.384345526365, 127.452318709095,Ni97Fe3,"# generated using pymatgen
 data_Fe26Ni
_symmetry_space_group_name_H-M   'P 1'
_cell_length_a   7.41318390
_cell_length_b   7.41318390
_cell_length_c   10.48382521
_cell_angle_alpha   90.00000000
_cell_angle_beta   90.00000000
_cell_angle_gamma   90.00000000
_symmetry_Int_Tables_number   1
_chemical_formula_structural   Fe26Ni
_chemical_formula_sum   'Fe52 Ni2'
_cell_volume   576.14171285
_cell_formula_units_Z   2
loop_
 _symmetry_equiv_pos_site_id
 _symmetry_equiv_pos_as_xyz
  1  'x, y, z'
loop_
 _atom_site_type_symbol
 _atom_site_label
 _atom_site_symmetry_multiplicity
 _atom_site_fract_x
 _atom_site_fract_y
 _atom_site_fract_z
 _atom_site_occupancy
  Fe  Fe0  1  0.00364528  0.00364528  0.00363725  1
  Ni  Ni1  1  0.17030134  0.17030134  0.17029793  1
  Fe  Fe2  1  0.00363725  0.00363725  0.33696201  1
  Fe  Fe3  1  0.00364579  0.33696202  0.00363725  1
  Fe  Fe4  1  0.17030391  0.50362014  0.17029535  1
  Fe  Fe5  1  0.00363624  0.33696202  0.33696301  1
  Fe  Fe6  1  0.00364001  0.67029160  1.00363196  1
  Fe  Fe7  1  0.17029864  0.83697485  0.17030064  1
  Fe  Fe8  1  1.00363198  0.67029963  0.33696729  1
  Fe  Fe9  1  0.33696202  0.00364579  0.00363725  1
  Fe  Fe10  1  0.50362014  0.17030391  0.17029535  1
  Fe  Fe11  1  0.33696202  0.00363624  0.33696301  1
  Ni  Ni12  1  0.33696460  0.33696460  0.00363468  1
  Fe  Fe13  1  0.50362066  0.50362066  0.17029535  1
  Fe  Fe14  1  0.33696202  0.33696202  0.33695398  1
  Fe  Fe15  1  0.33696729  0.67029109  1.00363196  1
  Fe  Fe16  1  0.50362592  0.83697433  0.17030064  1
  Fe  Fe17  1  0.33696729  0.67030065  0.33696830  1
  Fe  Fe18  1  0.67029160  0.00364001  1.00363196  1
  Fe  Fe19  1  0.83697485  0.17029864  0.17030064  1
  Fe  Fe20  1  0.67029963  1.00363198  0.33696729  1
  Fe  Fe21  1  0.67029109  0.33696729  1.00363196  1
  Fe  Fe22  1  0.83697433  0.50362592  0.17030064  1
  Fe  Fe23  1  0.67030065  0.33696729  0.33696830  1
  Fe  Fe24  1  0.67029160  0.67029160  0.00363298  1
  Fe  Fe25  1  0.83697434  0.83697434  0.17029962  1
  Fe  Fe26  1  0.67029963  0.67029963  0.33696627  1
  Fe  Fe27  1  0.17029964  0.17029964  0.50362492  1
  Fe  Fe28  1  0.00363298  0.00363298  0.67029965  1
  Fe  Fe29  1  0.17030391  0.17030391  0.83697862  1
  Fe  Fe30  1  0.17029964  0.50363397  0.50363396  1
  Fe  Fe31  1  1.00363196  0.33696629  0.67029864  1
  Fe  Fe32  1  0.17030391  0.50362970  0.83696959  1
  Fe  Fe33  1  0.17029964  0.83696529  0.50363396  1
  Fe  Fe34  1  0.00363298  0.67029963  0.67029965  1
  Fe  Fe35  1  0.17029864  0.83696529  0.83696430  1
  Fe  Fe36  1  0.50363397  0.17029964  0.50363396  1
  Fe  Fe37  1  0.33696629  1.00363196  0.67029864  1
  Fe  Fe38  1  0.50362970  0.17030391  0.83696959  1
  Fe  Fe39  1  0.50363295  0.50363295  0.50363296  1
  Fe  Fe40  1  0.33696629  0.33696629  0.67030768  1
  Fe  Fe41  1  0.50362868  0.50362868  0.83697059  1
  Fe  Fe42  1  0.50363296  0.83696631  0.50363296  1
  Fe  Fe43  1  0.33696630  0.67030065  0.67029864  1
  Fe  Fe44  1  0.50363395  0.83696631  0.83696531  1
  Fe  Fe45  1  0.83696529  0.17029964  0.50363396  1
  Fe  Fe46  1  0.67029963  0.00363298  0.67029965  1
  Fe  Fe47  1  0.83696529  0.17029864  0.83696430  1
  Fe  Fe48  1  0.83696631  0.50363296  0.50363296  1
  Fe  Fe49  1  0.67030065  0.33696630  0.67029864  1
  Fe  Fe50  1  0.83696631  0.50363395  0.83696531  1
  Fe  Fe51  1  0.83696631  0.83696631  0.50363296  1
  Fe  Fe52  1  0.67029963  0.67029963  0.67029965  1
  Fe  Fe53  1  0.83696631  0.83696631  0.83696633  1
" 