6985,Ni97Cr3_16,-200.676229350219, 201.348947046144,Ni97Cr3,"# generated using pymatgen
 data_Cr26Ni
_symmetry_space_group_name_H-M   'P 1'
_cell_length_a   7.60128597
_cell_length_b   7.60128597
_cell_length_c   10.74984171
_cell_angle_alpha   90.00000000
_cell_angle_beta   90.00000000
_cell_angle_gamma   90.00000000
_symmetry_Int_Tables_number   1
_chemical_formula_structural   Cr26Ni
_chemical_formula_sum   'Cr52 Ni2'
_cell_volume   621.12099887
_cell_formula_units_Z   2
loop_
 _symmetry_equiv_pos_site_id
 _symmetry_equiv_pos_as_xyz
  1  'x, y, z'
loop_
 _atom_site_type_symbol
 _atom_site_label
 _atom_site_symmetry_multiplicity
 _atom_site_fract_x
 _atom_site_fract_y
 _atom_site_fract_z
 _atom_site_occupancy
  Cr  Cr0  1  -0.00854736  -0.00854736  0.99094111  1
  Cr  Cr1  1  0.15859953  0.15859953  0.15707768  1
  Cr  Cr2  1  -0.00836623  -0.00836623  0.32450336  1
  Cr  Cr3  1  -0.00812524  0.32450336  -0.00848330  1
  Cr  Cr4  1  0.15859953  0.49040719  0.15707768  1
  Cr  Cr5  1  0.99049065  0.32450336  0.32450336  1
  Cr  Cr6  1  -0.00854736  0.65755408  0.99094111  1
  Cr  Cr7  1  0.15748203  0.82450336  0.15818378  1
  Cr  Cr8  1  -0.00836623  0.65737294  0.32450336  1
  Cr  Cr9  1  0.32450336  -0.00812524  -0.00848330  1
  Cr  Cr10  1  0.49040719  0.15859953  0.15707768  1
  Cr  Cr11  1  0.32450336  0.99049065  0.32450336  1
  Ni  Ni12  1  0.32450336  0.32450336  0.99099416  1
  Cr  Cr13  1  0.49040719  0.49040719  0.15707768  1
  Cr  Cr14  1  0.32450336  0.32450336  0.32450336  1
  Cr  Cr15  1  0.32450336  0.65713196  -0.00848330  1
  Cr  Cr16  1  0.49152468  0.82450336  0.15818378  1
  Cr  Cr17  1  0.32450336  0.65851606  0.32450336  1
  Cr  Cr18  1  0.65755408  -0.00854736  0.99094111  1
  Cr  Cr19  1  0.82450336  0.15748203  0.15818378  1
  Cr  Cr20  1  0.65737294  -0.00836623  0.32450336  1
  Cr  Cr21  1  0.65713196  0.32450336  -0.00848330  1
  Cr  Cr22  1  0.82450336  0.49152468  0.15818378  1
  Cr  Cr23  1  0.65851606  0.32450336  0.32450336  1
  Cr  Cr24  1  0.65755408  0.65755408  0.99094111  1
  Cr  Cr25  1  0.82450336  0.82450336  0.15783424  1
  Cr  Cr26  1  0.65737294  0.65737294  0.32450336  1
  Cr  Cr27  1  0.15859953  0.15859953  0.49192903  1
  Cr  Cr28  1  -0.00854736  -0.00854736  0.65806561  1
  Cr  Cr29  1  0.15935711  0.15935711  0.82450336  1
  Cr  Cr30  1  0.15859953  0.49040719  0.49192903  1
  Cr  Cr31  1  -0.00812524  0.32450336  0.65749001  1
  Cr  Cr32  1  0.15935711  0.48964961  0.82450336  1
  Cr  Cr33  1  0.15748203  0.82450336  0.49082294  1
  Cr  Cr34  1  -0.00854736  0.65755408  0.65806561  1
  Cr  Cr35  1  0.15715658  0.82450336  0.82450336  1
  Cr  Cr36  1  0.49040719  0.15859953  0.49192903  1
  Cr  Cr37  1  0.32450336  -0.00812524  0.65749001  1
  Cr  Cr38  1  0.48964961  0.15935711  0.82450336  1
  Cr  Cr39  1  0.49040719  0.49040719  0.49192903  1
  Ni  Ni40  1  0.32450336  0.32450336  0.65801255  1
  Cr  Cr41  1  0.48964961  0.48964961  0.82450336  1
  Cr  Cr42  1  0.49152468  0.82450336  0.49082294  1
  Cr  Cr43  1  0.32450336  0.65713196  0.65749001  1
  Cr  Cr44  1  0.49185014  0.82450336  0.82450336  1
  Cr  Cr45  1  0.82450336  0.15748203  0.49082294  1
  Cr  Cr46  1  0.65755408  -0.00854736  0.65806561  1
  Cr  Cr47  1  0.82450336  0.15715658  0.82450336  1
  Cr  Cr48  1  0.82450336  0.49152468  0.49082294  1
  Cr  Cr49  1  0.65713196  0.32450336  0.65749001  1
  Cr  Cr50  1  0.82450336  0.49185014  0.82450336  1
  Cr  Cr51  1  0.82450336  0.82450336  0.49117248  1
  Cr  Cr52  1  0.65755408  0.65755408  0.65806561  1
  Cr  Cr53  1  0.82450336  0.82450336  0.82450336  1
" 