8680,Ni97Fe3_1,-224.384345526365, 127.452318679995,Ni97Fe3,"# generated using pymatgen
 data_Fe26Ni
_symmetry_space_group_name_H-M   'P 1'
_cell_length_a   7.41318390
_cell_length_b   7.41318390
_cell_length_c   10.48382521
_cell_angle_alpha   90.00000000
_cell_angle_beta   90.00000000
_cell_angle_gamma   90.00000000
_symmetry_Int_Tables_number   1
_chemical_formula_structural   Fe26Ni
_chemical_formula_sum   'Fe52 Ni2'
_cell_volume   576.14171285
_cell_formula_units_Z   2
loop_
 _symmetry_equiv_pos_site_id
 _symmetry_equiv_pos_as_xyz
  1  'x, y, z'
loop_
 _atom_site_type_symbol
 _atom_site_label
 _atom_site_symmetry_multiplicity
 _atom_site_fract_x
 _atom_site_fract_y
 _atom_site_fract_z
 _atom_site_occupancy
  Fe  Fe0  1  1.00363296  1.00363198  0.00363396  1
  Fe  Fe1  1  0.17029862  0.17029964  0.17030063  1
  Fe  Fe2  1  1.00363296  0.00363298  0.33696631  1
  Fe  Fe3  1  0.00363398  0.33696729  0.00363497  1
  Fe  Fe4  1  0.17029964  0.50363296  0.17029962  1
  Fe  Fe5  1  0.00363398  0.33696630  0.33696531  1
  Fe  Fe6  1  1.00363296  0.67029963  1.00363294  1
  Fe  Fe7  1  0.17029964  0.83696631  0.17029962  1
  Fe  Fe8  1  1.00363296  0.67029963  0.33696631  1
  Fe  Fe9  1  0.33697059  0.00363725  1.00362867  1
  Fe  Fe10  1  0.50363298  0.17029964  0.17029159  1
  Fe  Fe11  1  0.33696632  0.00363298  0.33696631  1
  Fe  Fe12  1  0.33696957  0.33696202  1.00362968  1
  Fe  Fe13  1  0.50363298  0.50363397  0.17030063  1
  Fe  Fe14  1  0.33696530  0.33696629  0.33696531  1
  Fe  Fe15  1  0.33696532  0.67029963  0.00363396  1
  Fe  Fe16  1  0.50363297  0.83696529  0.17030063  1
  Fe  Fe17  1  0.33696631  0.67029963  0.33696631  1
  Fe  Fe18  1  0.67029535  0.00363624  1.00362968  1
  Fe  Fe19  1  0.83696730  0.17029964  0.17030063  1
  Fe  Fe20  1  0.67029963  1.00363196  0.33696531  1
  Fe  Fe21  1  0.67029536  0.33696202  1.00362065  1
  Fe  Fe22  1  0.83696628  0.50363295  0.17029962  1
  Fe  Fe23  1  0.67029963  0.33696629  0.33697434  1
  Fe  Fe24  1  0.67030063  0.67030065  0.00363497  1
  Fe  Fe25  1  0.83696629  0.83696631  0.17029962  1
  Fe  Fe26  1  0.67029963  0.67030065  0.33696531  1
  Fe  Fe27  1  0.17029862  0.17029864  0.50363097  1
  Fe  Fe28  1  1.00362493  0.00364001  0.67029863  1
  Fe  Fe29  1  0.17030818  0.17029864  0.83696731  1
  Fe  Fe30  1  0.17029964  0.50363395  0.50363197  1
  Fe  Fe31  1  1.00362442  0.33696729  0.67029863  1
  Fe  Fe32  1  0.17030767  0.50362592  0.83696731  1
  Fe  Fe33  1  0.17029964  0.83696631  0.50363299  1
  Fe  Fe34  1  1.00362493  0.67029160  0.67029965  1
  Fe  Fe35  1  0.17030767  0.83697434  0.83696628  1
  Fe  Fe36  1  0.50363725  0.17030391  0.50364529  1
  Fe  Fe37  1  0.33697861  0.00364528  0.67030392  1
  Ni  Ni38  1  0.50363467  0.17030134  0.83696459  1
  Fe  Fe39  1  0.50363725  0.50362970  0.50363626  1
  Fe  Fe40  1  0.33697913  0.33696202  0.67030392  1
  Fe  Fe41  1  0.50363725  0.50362014  0.83696202  1
  Fe  Fe42  1  0.50363198  0.83696529  0.50363097  1
  Fe  Fe43  1  0.33697334  0.67029160  0.67029863  1
  Fe  Fe44  1  0.50363198  0.83697485  0.83696731  1
  Fe  Fe45  1  0.83696303  0.17030391  0.50363626  1
  Fe  Fe46  1  0.67029535  0.00364579  0.67030392  1
  Fe  Fe47  1  0.83695347  0.17030391  0.83696202  1
  Fe  Fe48  1  0.83696201  0.50362868  0.50363726  1
  Ni  Ni49  1  0.67029793  0.33696460  0.67030134  1
  Fe  Fe50  1  0.83695399  0.50362066  0.83696202  1
  Fe  Fe51  1  0.83696728  0.83696631  0.50363197  1
  Fe  Fe52  1  0.67030063  0.67029109  0.67029863  1
  Fe  Fe53  1  0.83695926  0.83697433  0.83696731  1
" 