8799,Ni97Fe3_2,-224.390919408406, 128.712198651461,Ni97Fe3,"# generated using pymatgen
 data_Fe26Ni
_symmetry_space_group_name_H-M   'P 1'
_cell_length_a   7.41313760
_cell_length_b   7.41313760
_cell_length_c   10.48375974
_cell_angle_alpha   90.00000000
_cell_angle_beta   90.00000000
_cell_angle_gamma   90.00000000
_symmetry_Int_Tables_number   1
_chemical_formula_structural   Fe26Ni
_chemical_formula_sum   'Fe52 Ni2'
_cell_volume   576.13091831
_cell_formula_units_Z   2
loop_
 _symmetry_equiv_pos_site_id
 _symmetry_equiv_pos_as_xyz
  1  'x, y, z'
loop_
 _atom_site_type_symbol
 _atom_site_label
 _atom_site_symmetry_multiplicity
 _atom_site_fract_x
 _atom_site_fract_y
 _atom_site_fract_z
 _atom_site_occupancy
  Fe  Fe0  1  1.00363203  1.00363204  0.00364018  1
  Fe  Fe1  1  0.17029515  0.17029515  0.17030278  1
  Fe  Fe2  1  1.00363203  1.00363204  0.33696538  1
  Fe  Fe3  1  0.00363801  0.33696945  1.00363610  1
  Fe  Fe4  1  0.17029515  0.50364374  0.17030278  1
  Fe  Fe5  1  0.00363801  0.33696945  0.33696946  1
  Fe  Fe6  1  1.00363203  0.67030685  0.00364018  1
  Fe  Fe7  1  0.17029463  0.83696945  0.17030278  1
  Fe  Fe8  1  1.00363203  0.67030685  0.33696538  1
  Fe  Fe9  1  0.33696945  0.00363706  1.00363515  1
  Fe  Fe10  1  0.50364375  0.17029516  0.17030278  1
  Fe  Fe11  1  0.33696945  0.00363706  0.33697041  1
  Fe  Fe12  1  0.33696849  0.33696945  0.00363707  1
  Fe  Fe13  1  0.50364375  0.50364374  0.17030278  1
  Fe  Fe14  1  0.33696849  0.33696945  0.33696849  1
  Fe  Fe15  1  0.33696945  0.67030183  1.00363515  1
  Fe  Fe16  1  0.50364426  0.83696945  0.17030278  1
  Fe  Fe17  1  0.33696945  0.67030183  0.33697041  1
  Fe  Fe18  1  0.67030686  1.00363108  0.00364113  1
  Fe  Fe19  1  0.83696944  0.17029464  0.17030278  1
  Fe  Fe20  1  0.67030686  1.00363108  0.33696442  1
  Fe  Fe21  1  0.67030184  0.33696945  1.00362752  1
  Fe  Fe22  1  0.83696944  0.50364425  0.17030278  1
  Fe  Fe23  1  0.67030184  0.33696945  0.33697803  1
  Fe  Fe24  1  0.67030686  0.67030781  0.00364113  1
  Ni  Ni25  1  0.83696944  0.83696945  0.17030278  1
  Fe  Fe26  1  0.67030686  0.67030781  0.33696442  1
  Fe  Fe27  1  0.17030277  0.17030183  0.50363515  1
  Fe  Fe28  1  1.00362847  0.00364374  0.67030278  1
  Fe  Fe29  1  0.17030277  0.17030183  0.83697041  1
  Fe  Fe30  1  0.17030277  0.50363706  0.50363515  1
  Fe  Fe31  1  1.00362796  0.33696945  0.67030278  1
  Fe  Fe32  1  0.17030277  0.50363706  0.83697041  1
  Fe  Fe33  1  0.17030374  0.83696945  0.50363707  1
  Fe  Fe34  1  1.00362847  0.67029516  0.67030278  1
  Fe  Fe35  1  0.17030374  0.83696945  0.83696849  1
  Fe  Fe36  1  0.50364020  0.17030685  0.50364018  1
  Fe  Fe37  1  0.33697708  0.00364374  0.67030278  1
  Fe  Fe38  1  0.50364020  0.17030685  0.83696538  1
  Fe  Fe39  1  0.50364020  0.50363204  0.50364018  1
  Fe  Fe40  1  0.33697759  0.33696945  0.67030278  1
  Fe  Fe41  1  0.50364020  0.50363204  0.83696538  1
  Fe  Fe42  1  0.50363422  0.83696945  0.50363610  1
  Fe  Fe43  1  0.33697708  0.67029515  0.67030278  1
  Fe  Fe44  1  0.50363422  0.83696945  0.83696946  1
  Fe  Fe45  1  0.83696537  0.17030781  0.50364113  1
  Fe  Fe46  1  0.67030279  0.00364425  0.67030278  1
  Fe  Fe47  1  0.83696537  0.17030781  0.83696442  1
  Fe  Fe48  1  0.83696537  0.50363108  0.50364113  1
  Ni  Ni49  1  0.67030278  0.33696945  0.67030278  1
  Fe  Fe50  1  0.83696537  0.50363108  0.83696442  1
  Fe  Fe51  1  0.83697038  0.83696945  0.50362752  1
  Fe  Fe52  1  0.67030279  0.67029464  0.67030278  1
  Fe  Fe53  1  0.83697038  0.83696945  0.83697803  1
" 