7756,Ni97Cr3_11,-200.707622264653, 202.053194450016,Ni97Cr3,"# generated using pymatgen
 data_Cr26Ni
_symmetry_space_group_name_H-M   'P 1'
_cell_length_a   7.60126550
_cell_length_b   7.60126550
_cell_length_c   10.74981276
_cell_angle_alpha   90.00000000
_cell_angle_beta   90.00000000
_cell_angle_gamma   90.00000000
_symmetry_Int_Tables_number   1
_chemical_formula_structural   Cr26Ni
_chemical_formula_sum   'Cr52 Ni2'
_cell_volume   621.11598109
_cell_formula_units_Z   2
loop_
 _symmetry_equiv_pos_site_id
 _symmetry_equiv_pos_as_xyz
  1  'x, y, z'
loop_
 _atom_site_type_symbol
 _atom_site_label
 _atom_site_symmetry_multiplicity
 _atom_site_fract_x
 _atom_site_fract_y
 _atom_site_fract_z
 _atom_site_occupancy
  Cr  Cr0  1  0.99006983  0.99040783  0.99075803  1
  Cr  Cr1  1  0.15760616  0.15760416  0.15760845  1
  Cr  Cr2  1  0.99083171  0.99117028  0.32415749  1
  Cr  Cr3  1  -0.00825670  0.32427154  -0.00871165  1
  Cr  Cr4  1  0.15758933  0.49140416  0.15760841  1
  Cr  Cr5  1  -0.00857997  0.32427186  0.32473428  1
  Cr  Cr6  1  0.99063925  0.65883567  0.99017995  1
  Cr  Cr7  1  0.15817765  0.82450574  0.15818520  1
  Cr  Cr8  1  -0.00859680  0.65807186  0.32473424  1
  Cr  Cr9  1  0.32450468  -0.00848932  -0.00853494  1
  Cr  Cr10  1  0.49140320  0.15760416  0.15760845  1
  Cr  Cr11  1  0.32450468  -0.00881287  0.32455670  1
  Cr  Cr12  1  0.32450468  0.32484327  -0.00848380  1
  Cr  Cr13  1  0.49142003  0.49140416  0.15760841  1
  Cr  Cr14  1  0.32450468  0.32484340  0.32415740  1
  Cr  Cr15  1  0.32450468  0.65715922  -0.00813376  1
  Cr  Cr16  1  0.49083171  0.82450574  0.15818520  1
  Cr  Cr17  1  0.32450468  0.65748355  0.32415745  1
  Cr  Cr18  1  0.65893953  0.99040783  0.99075803  1
  Cr  Cr19  1  0.82450468  0.15819248  0.15818525  1
  Cr  Cr20  1  0.65817765  0.99117028  0.32415749  1
  Cr  Cr21  1  0.65726606  0.32427154  -0.00871165  1
  Cr  Cr22  1  0.82450468  0.49083263  0.15818529  1
  Cr  Cr23  1  0.65758933  0.32427186  0.32473428  1
  Cr  Cr24  1  0.65837011  0.65883567  0.99017995  1
  Cr  Cr25  1  0.82450468  0.82448889  0.15778600  1
  Cr  Cr26  1  0.65760616  0.65807186  0.32473424  1
  Cr  Cr27  1  0.15837011  0.15684036  0.49216274  1
  Cr  Cr28  1  -0.00854713  0.99041156  0.65859471  1
  Cr  Cr29  1  0.15854924  0.15702508  0.82374538  1
  Cr  Cr30  1  0.15726606  0.49140449  0.49105434  1
  Cr  Cr31  1  -0.00843881  0.32445420  0.65749112  1
  Cr  Cr32  1  0.15744817  0.49122182  0.82485158  1
  Cr  Cr33  1  0.15893953  0.82526820  0.49158466  1
  Cr  Cr34  1  0.99046012  0.65865094  0.65859732  1
  Cr  Cr35  1  0.15755649  0.82526447  0.82374798  1
  Cr  Cr36  1  0.49063925  0.15684036  0.49216274  1
  Ni  Ni37  1  0.32450468  -0.00870131  0.65770401  1
  Cr  Cr38  1  0.49046012  0.15702508  0.82374538  1
  Cr  Cr39  1  0.49174330  0.49140449  0.49105434  1
  Cr  Cr40  1  0.32450468  0.32345841  0.65784041  1
  Cr  Cr41  1  0.49156119  0.49122182  0.82485158  1
  Cr  Cr42  1  0.49006983  0.82526820  0.49158466  1
  Cr  Cr43  1  0.32450468  0.65854005  0.65749159  1
  Cr  Cr44  1  0.49145287  0.82526447  0.82374798  1
  Cr  Cr45  1  0.82450468  0.15851680  0.49047646  1
  Cr  Cr46  1  0.65755649  0.99041156  0.65859471  1
  Cr  Cr47  1  0.82450468  0.15713597  0.82485110  1
  Cr  Cr48  1  0.82450468  0.49083275  0.49082649  1
  Cr  Cr49  1  0.65744817  0.32445420  0.65749112  1
  Cr  Cr50  1  0.82450468  0.49221761  0.82450229  1
  Cr  Cr51  1  0.82450468  0.82416535  0.49087763  1
  Cr  Cr52  1  0.65854924  0.65865094  0.65859732  1
  Ni  Ni53  1  0.82450468  0.82437733  0.82463868  1
" 