4094,Ni97Fe3_9,-224.297007446557, 127.926136339366,Ni97Fe3,"# generated using pymatgen
 data_Fe26Ni
_symmetry_space_group_name_H-M   'P 1'
_cell_length_a   7.41292002
_cell_length_b   7.41292002
_cell_length_c   10.48345203
_cell_angle_alpha   90.00000000
_cell_angle_beta   90.00000000
_cell_angle_gamma   90.00000000
_symmetry_Int_Tables_number   1
_chemical_formula_structural   Fe26Ni
_chemical_formula_sum   'Fe52 Ni2'
_cell_volume   576.08018992
_cell_formula_units_Z   2
loop_
 _symmetry_equiv_pos_site_id
 _symmetry_equiv_pos_as_xyz
  1  'x, y, z'
loop_
 _atom_site_type_symbol
 _atom_site_label
 _atom_site_symmetry_multiplicity
 _atom_site_fract_x
 _atom_site_fract_y
 _atom_site_fract_z
 _atom_site_occupancy
  Fe  Fe0  1  0.00365090  0.00365757  0.00365177  1
  Fe  Fe1  1  0.17031291  0.17032134  0.17031465  1
  Fe  Fe2  1  0.00365090  1.00365002  0.33698509  1
  Ni  Ni3  1  0.00365090  0.33698344  1.00365012  1
  Fe  Fe4  1  0.17031379  0.50364711  0.17031377  1
  Fe  Fe5  1  0.00365090  0.33698422  0.33697718  1
  Fe  Fe6  1  0.00365090  0.67031002  1.00365088  1
  Fe  Fe7  1  0.17031843  0.83698424  0.17031842  1
  Fe  Fe8  1  0.00365090  0.67031844  0.33698509  1
  Fe  Fe9  1  0.33698095  0.00366171  1.00364712  1
  Fe  Fe10  1  0.50365090  0.17031670  0.17031138  1
  Fe  Fe11  1  0.33698423  0.00365091  0.33698422  1
  Fe  Fe12  1  0.33698046  0.33698046  1.00364712  1
  Fe  Fe13  1  0.50365090  0.50365263  0.17031930  1
  Fe  Fe14  1  0.33698511  0.33698422  0.33698509  1
  Fe  Fe15  1  0.33697632  0.67031052  0.00365177  1
  Fe  Fe16  1  0.50365090  0.83698335  0.17031841  1
  Fe  Fe17  1  0.33698423  0.67031756  0.33698422  1
  Fe  Fe18  1  0.67032084  0.00366171  1.00364712  1
  Fe  Fe19  1  0.83698888  0.17032134  0.17031465  1
  Fe  Fe20  1  0.67031756  0.00365091  0.33698422  1
  Fe  Fe21  1  0.67032133  0.33698046  1.00364712  1
  Fe  Fe22  1  0.83698800  0.50364711  0.17031377  1
  Fe  Fe23  1  0.67031668  0.33698422  0.33698509  1
  Fe  Fe24  1  0.67032547  0.67031052  0.00365177  1
  Fe  Fe25  1  0.83698336  0.83698424  0.17031842  1
  Fe  Fe26  1  0.67031756  0.67031756  0.33698422  1
  Fe  Fe27  1  0.17031668  0.17031757  0.50365003  1
  Fe  Fe28  1  0.00365090  1.00364916  0.67031583  1
  Fe  Fe29  1  0.17032133  0.17032133  0.83698801  1
  Fe  Fe30  1  0.17031756  0.50365088  0.50365091  1
  Fe  Fe31  1  0.00365090  0.33698509  0.67032374  1
  Fe  Fe32  1  0.17032084  0.50364008  0.83698800  1
  Fe  Fe33  1  0.17031756  0.83698424  0.50365091  1
  Fe  Fe34  1  0.00365090  0.67031844  0.67031671  1
  Fe  Fe35  1  0.17032547  0.83699127  0.83698336  1
  Fe  Fe36  1  0.50365090  0.17031757  0.50365795  1
  Fe  Fe37  1  0.33698800  0.00365468  0.67032135  1
  Ni  Ni38  1  0.50365090  0.17031835  0.83698500  1
  Fe  Fe39  1  0.50365090  0.50365177  0.50365003  1
  Fe  Fe40  1  0.33698888  0.33698046  0.67032048  1
  Fe  Fe41  1  0.50365090  0.50364422  0.83698336  1
  Fe  Fe42  1  0.50365090  0.83698335  0.50365003  1
  Fe  Fe43  1  0.33698336  0.67031756  0.67031670  1
  Fe  Fe44  1  0.50365090  0.83699177  0.83698424  1
  Fe  Fe45  1  0.83698511  0.17031757  0.50365003  1
  Fe  Fe46  1  0.67031379  0.00365468  0.67032135  1
  Fe  Fe47  1  0.83698046  0.17032133  0.83698801  1
  Fe  Fe48  1  0.83698423  0.50365088  0.50365091  1
  Fe  Fe49  1  0.67031291  0.33698046  0.67032048  1
  Fe  Fe50  1  0.83698095  0.50364008  0.83698800  1
  Fe  Fe51  1  0.83698423  0.83698424  0.50365091  1
  Fe  Fe52  1  0.67031843  0.67031756  0.67031670  1
  Fe  Fe53  1  0.83697632  0.83699127  0.83698336  1
" 