8100,Ni97Fe2Cr0_6,-239.845670116437, 180.140228990759,Ni97Fe2Cr0,"# generated using pymatgen
 data_CrFeNi52
_symmetry_space_group_name_H-M   'P 1'
_cell_length_a   7.46075732
_cell_length_b   7.46075732
_cell_length_c   10.55110418
_cell_angle_alpha   90.00000000
_cell_angle_beta   90.00000000
_cell_angle_gamma   90.00000000
_symmetry_Int_Tables_number   1
_chemical_formula_structural   CrFeNi52
_chemical_formula_sum   'Cr1 Fe1 Ni52'
_cell_volume   587.30505388
_cell_formula_units_Z   1
loop_
 _symmetry_equiv_pos_site_id
 _symmetry_equiv_pos_as_xyz
  1  'x, y, z'
loop_
 _atom_site_type_symbol
 _atom_site_label
 _atom_site_symmetry_multiplicity
 _atom_site_fract_x
 _atom_site_fract_y
 _atom_site_fract_z
 _atom_site_occupancy
  Ni  Ni0  1  1.00005822  1.00005822  0.00045687  1
  Ni  Ni1  1  0.16708823  0.16708823  0.16681938  1
  Ni  Ni2  1  1.00034726  1.00034726  0.33342269  1
  Ni  Ni3  1  1.00005822  0.33411823  0.00045687  1
  Ni  Ni4  1  0.16708823  0.50057216  0.16716594  1
  Ni  Ni5  1  1.00034726  0.33382919  0.33342269  1
  Ni  Ni6  1  0.00122517  0.66708823  1.00022180  1
  Ni  Ni7  1  0.16708823  0.83360429  0.16716594  1
  Ni  Ni8  1  0.00050483  0.66708823  0.33400413  1
  Ni  Ni9  1  0.33411823  1.00005822  0.00045687  1
  Ni  Ni10  1  0.50057216  0.16708823  0.16716594  1
  Ni  Ni11  1  0.33382919  1.00034726  0.33342269  1
  Ni  Ni12  1  0.33411823  0.33411823  0.00045687  1
  Ni  Ni13  1  0.50030261  0.50030261  0.16713328  1
  Ni  Ni14  1  0.33382919  0.33382919  0.33342269  1
  Ni  Ni15  1  0.33295128  0.66708823  1.00022180  1
  Ni  Ni16  1  0.50030261  0.83387384  0.16713328  1
  Ni  Ni17  1  0.33367162  0.66708823  0.33400413  1
  Ni  Ni18  1  0.66708823  0.00122517  1.00022180  1
  Ni  Ni19  1  0.83360429  0.16708823  0.16716594  1
  Ni  Ni20  1  0.66708823  0.00050483  0.33400413  1
  Ni  Ni21  1  0.66708823  0.33295128  1.00022180  1
  Ni  Ni22  1  0.83387384  0.50030261  0.16713328  1
  Ni  Ni23  1  0.66708823  0.33367162  0.33400413  1
  Fe  Fe24  1  0.66708823  0.66708823  0.00084508  1
  Ni  Ni25  1  0.83387384  0.83387384  0.16713328  1
  Ni  Ni26  1  0.66708823  0.66708823  0.33285590  1
  Ni  Ni27  1  0.16708823  0.16708823  0.50035491  1
  Ni  Ni28  1  1.00035186  1.00035186  0.66738963  1
  Ni  Ni29  1  0.16708823  0.16708823  0.83409017  1
  Ni  Ni30  1  0.16708823  0.50034802  0.50058640  1
  Ni  Ni31  1  1.00035186  0.33382459  0.66738963  1
  Ni  Ni32  1  0.16708823  0.50047157  0.83351656  1
  Ni  Ni33  1  0.16708823  0.83382843  0.50058640  1
  Ni  Ni34  1  0.00204344  0.66708823  0.66706134  1
  Ni  Ni35  1  0.16708823  0.83370488  0.83351656  1
  Ni  Ni36  1  0.50034802  0.16708823  0.50058640  1
  Ni  Ni37  1  0.33382459  1.00035186  0.66738963  1
  Ni  Ni38  1  0.50047157  0.16708823  0.83351656  1
  Ni  Ni39  1  0.49948423  0.49948423  0.49948545  1
  Ni  Ni40  1  0.33382459  0.33382459  0.66738963  1
  Ni  Ni41  1  0.49933826  0.49933826  0.83462879  1
  Ni  Ni42  1  0.49948423  0.83469222  0.49948545  1
  Ni  Ni43  1  0.33213301  0.66708823  0.66706134  1
  Ni  Ni44  1  0.49933826  0.83483819  0.83462879  1
  Ni  Ni45  1  0.83382843  0.16708823  0.50058640  1
  Ni  Ni46  1  0.66708823  0.00204344  0.66706134  1
  Ni  Ni47  1  0.83370488  0.16708823  0.83351656  1
  Ni  Ni48  1  0.83469222  0.49948423  0.49948545  1
  Ni  Ni49  1  0.66708823  0.33213301  0.66706134  1
  Ni  Ni50  1  0.83483819  0.49933826  0.83462879  1
  Ni  Ni51  1  0.83469222  0.83469222  0.49948545  1
  Cr  Cr52  1  0.66708823  0.66708823  0.66750723  1
  Ni  Ni53  1  0.83483819  0.83483819  0.83462879  1
" 