8769,Ni97Fe3_7,-224.390822113373, 129.15953200745,Ni97Fe3,"# generated using pymatgen
 data_Fe26Ni
_symmetry_space_group_name_H-M   'P 1'
_cell_length_a   7.41326858
_cell_length_b   7.41326858
_cell_length_c   10.48394497
_cell_angle_alpha   90.00000000
_cell_angle_beta   90.00000000
_cell_angle_gamma   90.00000000
_symmetry_Int_Tables_number   1
_chemical_formula_structural   Fe26Ni
_chemical_formula_sum   'Fe52 Ni2'
_cell_volume   576.16145708
_cell_formula_units_Z   2
loop_
 _symmetry_equiv_pos_site_id
 _symmetry_equiv_pos_as_xyz
  1  'x, y, z'
loop_
 _atom_site_type_symbol
 _atom_site_label
 _atom_site_symmetry_multiplicity
 _atom_site_fract_x
 _atom_site_fract_y
 _atom_site_fract_z
 _atom_site_occupancy
  Fe  Fe0  1  0.00362722  1.00362631  0.00362815  1
  Fe  Fe1  1  0.17029694  0.17029787  0.17029879  1
  Fe  Fe2  1  0.00363467  0.00363468  0.33696055  1
  Fe  Fe3  1  1.00362628  0.33696146  0.00362722  1
  Fe  Fe4  1  0.17029788  0.50362321  0.17029787  1
  Fe  Fe5  1  0.00363519  0.33696054  0.33696055  1
  Fe  Fe6  1  0.00362722  0.67029387  1.00362721  1
  Fe  Fe7  1  0.17029297  0.83696055  0.17029294  1
  Fe  Fe8  1  0.00363467  0.67028642  0.33696055  1
  Fe  Fe9  1  0.33696454  0.00363028  1.00362230  1
  Fe  Fe10  1  0.50362322  0.17029788  0.17029041  1
  Fe  Fe11  1  0.33696055  0.00363520  0.33696055  1
  Fe  Fe12  1  0.33696454  0.33695655  0.00363068  1
  Fe  Fe13  1  0.50362322  0.50362415  0.17029879  1
  Ni  Ni14  1  0.33696052  0.33696058  0.33696055  1
  Fe  Fe15  1  0.33695963  0.67029481  0.00362722  1
  Fe  Fe16  1  0.50362813  0.83695961  0.17029387  1
  Fe  Fe17  1  0.33696055  0.67028590  0.33696055  1
  Fe  Fe18  1  0.67028988  0.00363121  1.00362323  1
  Fe  Fe19  1  0.83696148  0.17029297  0.17029387  1
  Fe  Fe20  1  0.67028641  0.00363468  0.33696055  1
  Fe  Fe21  1  0.67029082  0.33695655  1.00362230  1
  Fe  Fe22  1  0.83696054  0.50362812  0.17029294  1
  Fe  Fe23  1  0.67028590  0.33696054  0.33696055  1
  Fe  Fe24  1  0.67029479  0.67029387  0.00362815  1
  Fe  Fe25  1  0.83696054  0.83696055  0.17029388  1
  Fe  Fe26  1  0.67028642  0.67028642  0.33696055  1
  Fe  Fe27  1  0.17029694  0.17029787  0.50362230  1
  Fe  Fe28  1  0.00362722  1.00362631  0.67029294  1
  Fe  Fe29  1  0.17030187  0.17029389  0.83696055  1
  Fe  Fe30  1  0.17029788  0.50362321  0.50362323  1
  Fe  Fe31  1  1.00362628  0.33696146  0.67029387  1
  Fe  Fe32  1  0.17030135  0.50361975  0.83696055  1
  Fe  Fe33  1  0.17029297  0.83696055  0.50362815  1
  Fe  Fe34  1  0.00362722  0.67029387  0.67029388  1
  Fe  Fe35  1  0.17030134  0.83696801  0.83696055  1
  Fe  Fe36  1  0.50362322  0.17029788  0.50363068  1
  Fe  Fe37  1  0.33696454  0.00363028  0.67029879  1
  Ni  Ni38  1  0.50362725  0.17029385  0.83696055  1
  Fe  Fe39  1  0.50362322  0.50362415  0.50362230  1
  Fe  Fe40  1  0.33696454  0.33695655  0.67029041  1
  Fe  Fe41  1  0.50362721  0.50361923  0.83696055  1
  Fe  Fe42  1  0.50362813  0.83695961  0.50362722  1
  Fe  Fe43  1  0.33695963  0.67029481  0.67029387  1
  Fe  Fe44  1  0.50362721  0.83696852  0.83696055  1
  Fe  Fe45  1  0.83696148  0.17029297  0.50362722  1
  Fe  Fe46  1  0.67028988  0.00363121  0.67029787  1
  Fe  Fe47  1  0.83695257  0.17029388  0.83696055  1
  Fe  Fe48  1  0.83696054  0.50362812  0.50362815  1
  Fe  Fe49  1  0.67029082  0.33695655  0.67029879  1
  Fe  Fe50  1  0.83695309  0.50361975  0.83696055  1
  Fe  Fe51  1  0.83696054  0.83696055  0.50362721  1
  Fe  Fe52  1  0.67029479  0.67029387  0.67029294  1
  Fe  Fe53  1  0.83695309  0.83696801  0.83696055  1
" 