1746,Ni97Cr3_19,-200.66826820716, 201.278140439861,Ni97Cr3,"# generated using pymatgen
 data_Cr26Ni
_symmetry_space_group_name_H-M   'P 1'
_cell_length_a   7.60155661
_cell_length_b   7.60155661
_cell_length_c   10.75022446
_cell_angle_alpha   90.00000000
_cell_angle_beta   90.00000000
_cell_angle_gamma   90.00000000
_symmetry_Int_Tables_number   1
_chemical_formula_structural   Cr26Ni
_chemical_formula_sum   'Cr52 Ni2'
_cell_volume   621.18734638
_cell_formula_units_Z   2
loop_
 _symmetry_equiv_pos_site_id
 _symmetry_equiv_pos_as_xyz
  1  'x, y, z'
loop_
 _atom_site_type_symbol
 _atom_site_label
 _atom_site_symmetry_multiplicity
 _atom_site_fract_x
 _atom_site_fract_y
 _atom_site_fract_z
 _atom_site_occupancy
  Cr  Cr0  1  0.99115254  0.99080323  -0.00849648  1
  Cr  Cr1  1  0.15770124  0.15804981  0.15794269  1
  Cr  Cr2  1  0.99115254  0.99114479  0.32448587  1
  Cr  Cr3  1  -0.00884746  0.32448587  -0.00814250  1
  Cr  Cr4  1  0.15770124  0.49092193  0.15794269  1
  Cr  Cr5  1  0.99115254  0.32448587  0.32448587  1
  Cr  Cr6  1  0.99115254  0.65816850  -0.00849648  1
  Cr  Cr7  1  0.15828105  0.82448587  0.15736032  1
  Cr  Cr8  1  0.99115254  0.65782695  0.32448587  1
  Cr  Cr9  1  0.32490500  -0.00807654  0.99073852  1
  Cr  Cr10  1  0.49115254  0.15747094  0.15811863  1
  Cr  Cr11  1  0.32447885  -0.00884660  0.32448587  1
  Cr  Cr12  1  0.32601797  0.32448587  0.98962309  1
  Cr  Cr13  1  0.49115254  0.49150080  0.15811863  1
  Cr  Cr14  1  0.32448757  0.32448587  0.32448587  1
  Cr  Cr15  1  0.32490500  0.65704828  0.99073852  1
  Cr  Cr16  1  0.49115254  0.82448587  0.15852617  1
  Cr  Cr17  1  0.32447885  0.65781834  0.32448587  1
  Cr  Cr18  1  0.65740008  -0.00807654  0.99073852  1
  Cr  Cr19  1  0.82460383  0.15804981  0.15794269  1
  Cr  Cr20  1  0.65782622  -0.00884660  0.32448587  1
  Cr  Cr21  1  0.65628710  0.32448587  0.98962309  1
  Cr  Cr22  1  0.82460383  0.49092193  0.15794269  1
  Cr  Cr23  1  0.65781750  0.32448587  0.32448587  1
  Cr  Cr24  1  0.65740008  0.65704828  0.99073852  1
  Cr  Cr25  1  0.82402402  0.82448587  0.15736032  1
  Cr  Cr26  1  0.65782622  0.65781834  0.32448587  1
  Cr  Cr27  1  0.15770124  0.15804981  0.49102905  1
  Cr  Cr28  1  0.99115254  0.99080323  0.65746822  1
  Cr  Cr29  1  0.15893527  0.15787070  0.82448587  1
  Cr  Cr30  1  0.15770124  0.49092193  0.49102905  1
  Cr  Cr31  1  -0.00884746  0.32448587  0.65711423  1
  Cr  Cr32  1  0.15893527  0.49110103  0.82448587  1
  Cr  Cr33  1  0.15828105  0.82448587  0.49161142  1
  Cr  Cr34  1  0.99115254  0.65816850  0.65746822  1
  Cr  Cr35  1  0.15792259  0.82448587  0.82448587  1
  Cr  Cr36  1  0.49115254  0.15747094  0.49085311  1
  Cr  Cr37  1  0.32490500  -0.00807654  0.65823321  1
  Ni  Ni38  1  0.49115254  0.15974583  0.82448587  1
  Cr  Cr39  1  0.49115254  0.49150080  0.49085311  1
  Cr  Cr40  1  0.32601797  0.32448587  0.65934865  1
  Ni  Ni41  1  0.49115254  0.48922591  0.82448587  1
  Cr  Cr42  1  0.49115254  0.82448587  0.49044557  1
  Cr  Cr43  1  0.32490500  0.65704828  0.65823321  1
  Cr  Cr44  1  0.49115254  0.82448587  0.82448587  1
  Cr  Cr45  1  0.82460383  0.15804981  0.49102905  1
  Cr  Cr46  1  0.65740008  -0.00807654  0.65823321  1
  Cr  Cr47  1  0.82336980  0.15787070  0.82448587  1
  Cr  Cr48  1  0.82460383  0.49092193  0.49102905  1
  Cr  Cr49  1  0.65628710  0.32448587  0.65934865  1
  Cr  Cr50  1  0.82336980  0.49110103  0.82448587  1
  Cr  Cr51  1  0.82402402  0.82448587  0.49161142  1
  Cr  Cr52  1  0.65740008  0.65704828  0.65823321  1
  Cr  Cr53  1  0.82438249  0.82448587  0.82448587  1
" 