4826,Ni97Cr3_3,-200.707622264653, 202.053194451623,Ni97Cr3,"# generated using pymatgen
 data_Cr26Ni
_symmetry_space_group_name_H-M   'P 1'
_cell_length_a   7.60126550
_cell_length_b   7.60126550
_cell_length_c   10.74981276
_cell_angle_alpha   90.00000000
_cell_angle_beta   90.00000000
_cell_angle_gamma   90.00000000
_symmetry_Int_Tables_number   1
_chemical_formula_structural   Cr26Ni
_chemical_formula_sum   'Cr52 Ni2'
_cell_volume   621.11598109
_cell_formula_units_Z   2
loop_
 _symmetry_equiv_pos_site_id
 _symmetry_equiv_pos_as_xyz
  1  'x, y, z'
loop_
 _atom_site_type_symbol
 _atom_site_label
 _atom_site_symmetry_multiplicity
 _atom_site_fract_x
 _atom_site_fract_y
 _atom_site_fract_z
 _atom_site_occupancy
  Cr  Cr0  1  0.99117135  0.99049256  0.99047646  1
  Cr  Cr1  1  0.15811954  0.15859780  0.15859471  1
  Cr  Cr2  1  0.99117135  -0.00812661  0.32485110  1
  Cr  Cr3  1  0.99117135  0.32484401  0.99087763  1
  Cr  Cr4  1  0.15712679  0.49035842  0.15859732  1
  Ni  Ni5  1  -0.00882865  0.32463203  0.32463868  1
  Cr  Cr6  1  -0.00882865  0.65817661  0.99082649  1
  Cr  Cr7  1  0.15822786  0.82455516  0.15749112  1
  Cr  Cr8  1  -0.00882865  0.65679174  0.32450229  1
  Cr  Cr9  1  0.32503677  -0.00783100  -0.00783726  1
  Ni  Ni10  1  0.49117135  0.15771067  0.15770401  1
  Cr  Cr11  1  0.32521590  -0.00801573  0.32374538  1
  Cr  Cr12  1  0.32560619  0.32374116  -0.00841534  1
  Cr  Cr13  1  0.49117135  0.49046930  0.15749159  1
  Cr  Cr14  1  0.32422315  0.32374489  0.32374798  1
  Cr  Cr15  1  0.32393273  0.65760487  0.99105434  1
  Cr  Cr16  1  0.49117135  0.82555095  0.15784041  1
  Cr  Cr17  1  0.32411484  0.65778754  0.32485158  1
  Cr  Cr18  1  0.65730592  -0.00783100  -0.00783726  1
  Cr  Cr19  1  0.82422315  0.15859780  0.15859471  1
  Cr  Cr20  1  0.65712679  -0.00801573  0.32374538  1
  Cr  Cr21  1  0.65673650  0.32374116  -0.00841534  1
  Cr  Cr22  1  0.82521590  0.49035842  0.15859732  1
  Cr  Cr23  1  0.65811954  0.32374489  0.32374798  1
  Cr  Cr24  1  0.65840996  0.65760487  0.99105434  1
  Cr  Cr25  1  0.82411484  0.82455516  0.15749112  1
  Cr  Cr26  1  0.65822786  0.65778754  0.32485158  1
  Cr  Cr27  1  0.15673650  0.15860153  0.49075803  1
  Cr  Cr28  1  0.99117135  0.99081688  0.65818525  1
  Cr  Cr29  1  0.15749837  0.15783907  0.82415749  1
  Cr  Cr30  1  0.15730592  0.49017369  0.49017995  1
  Cr  Cr31  1  0.99117135  0.32452046  0.65778600  1
  Cr  Cr32  1  0.15806987  0.49093750  0.82473424  1
  Cr  Cr33  1  0.15840996  0.82473782  0.49128835  1
  Cr  Cr34  1  -0.00882865  0.65817673  0.65818529  1
  Cr  Cr35  1  0.15808670  0.82473749  0.82473428  1
  Cr  Cr36  1  0.49117135  0.15749868  0.49146506  1
  Cr  Cr37  1  0.32427282  -0.00859480  0.65760845  1
  Cr  Cr38  1  0.49117135  0.15782223  0.82455670  1
  Cr  Cr39  1  0.49117135  0.49185014  0.49186624  1
  Cr  Cr40  1  0.32484432  0.32450362  0.65818520  1
  Cr  Cr41  1  0.49117135  0.49152581  0.82415745  1
  Cr  Cr42  1  0.49117135  0.82416609  0.49151620  1
  Cr  Cr43  1  0.32425600  0.65760520  0.65760841  1
  Cr  Cr44  1  0.49117135  0.82416596  0.82415740  1
  Cr  Cr45  1  0.82560619  0.15860153  0.49075803  1
  Cr  Cr46  1  0.65806987  -0.00859480  0.65760845  1
  Cr  Cr47  1  0.82484432  0.15783907  0.82415749  1
  Cr  Cr48  1  0.82503677  0.49017369  0.49017995  1
  Cr  Cr49  1  0.65749837  0.32450362  0.65818520  1
  Cr  Cr50  1  0.82427282  0.49093750  0.82473424  1
  Cr  Cr51  1  0.82393273  0.82473782  0.49128835  1
  Cr  Cr52  1  0.65808670  0.65760520  0.65760841  1
  Cr  Cr53  1  0.82425600  0.82473749  0.82473428  1
" 