8962,Ni97Fe2Cr0_14,-239.852729207771, 180.418995970598,Ni97Fe2Cr0,"# generated using pymatgen
 data_CrFeNi52
_symmetry_space_group_name_H-M   'P 1'
_cell_length_a   7.46072985
_cell_length_b   7.46072985
_cell_length_c   10.55106534
_cell_angle_alpha   90.00000000
_cell_angle_beta   90.00000000
_cell_angle_gamma   90.00000000
_symmetry_Int_Tables_number   1
_chemical_formula_structural   CrFeNi52
_chemical_formula_sum   'Cr1 Fe1 Ni52'
_cell_volume   587.29856742
_cell_formula_units_Z   1
loop_
 _symmetry_equiv_pos_site_id
 _symmetry_equiv_pos_as_xyz
  1  'x, y, z'
loop_
 _atom_site_type_symbol
 _atom_site_label
 _atom_site_symmetry_multiplicity
 _atom_site_fract_x
 _atom_site_fract_y
 _atom_site_fract_z
 _atom_site_occupancy
  Cr  Cr0  1  0.00042340  0.00042340  0.00065154  1
  Ni  Ni1  1  0.16865577  0.16865577  0.16799942  1
  Ni  Ni2  1  1.00042340  1.00042340  0.33374424  1
  Ni  Ni3  1  0.00042340  0.33536469  1.00034693  1
  Ni  Ni4  1  0.16619724  0.50042340  0.16690856  1
  Ni  Ni5  1  1.00042340  0.33371263  0.33361332  1
  Ni  Ni6  1  0.00042340  0.66548211  1.00034693  1
  Ni  Ni7  1  0.16865577  0.83219103  0.16799942  1
  Ni  Ni8  1  1.00042340  0.66713418  0.33361332  1
  Ni  Ni9  1  0.33536469  0.00042340  1.00034693  1
  Ni  Ni10  1  0.50042340  0.16619724  0.16690856  1
  Ni  Ni11  1  0.33371263  1.00042340  0.33361332  1
  Ni  Ni12  1  0.33384685  0.33384685  1.00038807  1
  Fe  Fe13  1  0.50042340  0.50042340  0.16717682  1
  Ni  Ni14  1  0.33381124  0.33381124  0.33381187  1
  Ni  Ni15  1  0.33384685  0.66699995  1.00038807  1
  Ni  Ni16  1  0.50042340  0.83464956  0.16690856  1
  Ni  Ni17  1  0.33381124  0.66703556  0.33381187  1
  Ni  Ni18  1  0.66548211  0.00042340  1.00034693  1
  Ni  Ni19  1  0.83219103  0.16865577  0.16799942  1
  Ni  Ni20  1  0.66713418  1.00042340  0.33361332  1
  Ni  Ni21  1  0.66699995  0.33384685  1.00038807  1
  Ni  Ni22  1  0.83464956  0.50042340  0.16690856  1
  Ni  Ni23  1  0.66703556  0.33381124  0.33381187  1
  Ni  Ni24  1  0.66699995  0.66699995  1.00038807  1
  Ni  Ni25  1  0.83219103  0.83219103  0.16799942  1
  Ni  Ni26  1  0.66703556  0.66703556  0.33381187  1
  Ni  Ni27  1  0.16735206  0.16735206  0.50012765  1
  Ni  Ni28  1  0.00042340  0.00042340  0.66686869  1
  Ni  Ni29  1  0.16837365  0.16837365  0.83314543  1
  Ni  Ni30  1  0.16688332  0.50042340  0.50046554  1
  Ni  Ni31  1  0.00042340  0.33361465  0.66730249  1
  Ni  Ni32  1  0.16693548  0.50042340  0.83389255  1
  Ni  Ni33  1  0.16735206  0.83349474  0.50012765  1
  Ni  Ni34  1  1.00042340  0.66723215  0.66730249  1
  Ni  Ni35  1  0.16837365  0.83247315  0.83314543  1
  Ni  Ni36  1  0.50042340  0.16688332  0.50046554  1
  Ni  Ni37  1  0.33361465  0.00042340  0.66730249  1
  Ni  Ni38  1  0.50042340  0.16693548  0.83389255  1
  Ni  Ni39  1  0.50042340  0.50042340  0.49977641  1
  Ni  Ni40  1  0.33402147  0.33402147  0.66707326  1
  Ni  Ni41  1  0.50042340  0.50042340  0.83434562  1
  Ni  Ni42  1  0.50042340  0.83396348  0.50046554  1
  Ni  Ni43  1  0.33402147  0.66682533  0.66707326  1
  Ni  Ni44  1  0.50042340  0.83391132  0.83389255  1
  Ni  Ni45  1  0.83349474  0.16735206  0.50012765  1
  Ni  Ni46  1  0.66723215  1.00042340  0.66730249  1
  Ni  Ni47  1  0.83247315  0.16837365  0.83314543  1
  Ni  Ni48  1  0.83396348  0.50042340  0.50046554  1
  Ni  Ni49  1  0.66682533  0.33402147  0.66707326  1
  Ni  Ni50  1  0.83391132  0.50042340  0.83389255  1
  Ni  Ni51  1  0.83349474  0.83349474  0.50012765  1
  Ni  Ni52  1  0.66682533  0.66682533  0.66707326  1
  Ni  Ni53  1  0.83247315  0.83247315  0.83314543  1
" 