6212,Ni97Fe2Cr0_17,-239.841623209368, 180.327182199022,Ni97Fe2Cr0,"# generated using pymatgen
 data_CrFeNi52
_symmetry_space_group_name_H-M   'P 1'
_cell_length_a   7.46083309
_cell_length_b   7.46083309
_cell_length_c   10.55121135
_cell_angle_alpha   90.00000000
_cell_angle_beta   90.00000000
_cell_angle_gamma   90.00000000
_symmetry_Int_Tables_number   1
_chemical_formula_structural   CrFeNi52
_chemical_formula_sum   'Cr1 Fe1 Ni52'
_cell_volume   587.32294967
_cell_formula_units_Z   1
loop_
 _symmetry_equiv_pos_site_id
 _symmetry_equiv_pos_as_xyz
  1  'x, y, z'
loop_
 _atom_site_type_symbol
 _atom_site_label
 _atom_site_symmetry_multiplicity
 _atom_site_fract_x
 _atom_site_fract_y
 _atom_site_fract_z
 _atom_site_occupancy
  Ni  Ni0  1  0.00112837  1.00003143  1.00039119  1
  Ni  Ni1  1  0.16707075  0.16708314  0.16709412  1
  Ni  Ni2  1  0.00084577  1.00034587  0.33344649  1
  Ni  Ni3  1  0.00112837  0.33413485  1.00039119  1
  Ni  Ni4  1  0.16699901  0.50041008  0.16727010  1
  Ni  Ni5  1  0.00084577  0.33382041  0.33344649  1
  Ni  Ni6  1  0.99953907  0.66708314  0.00062712  1
  Ni  Ni7  1  0.16699901  0.83375620  0.16727010  1
  Ni  Ni8  1  0.00198770  0.66708314  0.33381178  1
  Ni  Ni9  1  0.33359032  0.00138136  1.00039578  1
  Ni  Ni10  1  0.50049136  0.16708314  0.16732471  1
  Ni  Ni11  1  0.33356652  0.00067163  0.33379660  1
  Ni  Ni12  1  0.33359032  0.33278493  1.00039578  1
  Ni  Ni13  1  0.49942869  0.49936684  0.16618208  1
  Ni  Ni14  1  0.33356652  0.33349466  0.33379660  1
  Fe  Fe15  1  0.33356040  0.66708314  1.00031799  1
  Ni  Ni16  1  0.49942869  0.83479944  0.16618208  1
  Ni  Ni17  1  0.33220235  0.66708314  0.33308186  1
  Ni  Ni18  1  0.66654102  0.99987265  0.00062191  1
  Ni  Ni19  1  0.83368404  0.16708314  0.16699456  1
  Ni  Ni20  1  0.66683322  0.00177008  0.33344608  1
  Ni  Ni21  1  0.66654102  0.33429364  0.00062191  1
  Ni  Ni22  1  0.83476645  0.49935379  0.16625741  1
  Ni  Ni23  1  0.66683322  0.33239621  0.33344608  1
  Ni  Ni24  1  0.66783351  0.66708314  1.00018192  1
  Ni  Ni25  1  0.83476645  0.83481250  0.16625741  1
  Cr  Cr26  1  0.66748730  0.66708314  0.33410314  1
  Ni  Ni27  1  0.16695787  0.16708314  0.50048071  1
  Ni  Ni28  1  0.00083146  1.00033426  0.66741273  1
  Ni  Ni29  1  0.16707394  0.16708314  0.83367795  1
  Ni  Ni30  1  0.16721128  0.50062394  0.50024214  1
  Ni  Ni31  1  0.00083146  0.33383203  0.66741273  1
  Ni  Ni32  1  0.16695977  0.50045080  0.83368067  1
  Ni  Ni33  1  0.16721128  0.83354235  0.50024214  1
  Ni  Ni34  1  1.00034686  0.66708314  0.66683466  1
  Ni  Ni35  1  0.16695977  0.83371548  0.83368067  1
  Ni  Ni36  1  0.50061117  0.16708314  0.50024449  1
  Ni  Ni37  1  0.33358385  0.00064923  0.66706858  1
  Ni  Ni38  1  0.50058466  0.16708314  0.83367634  1
  Ni  Ni39  1  0.49920923  0.49948547  0.50134421  1
  Ni  Ni40  1  0.33358385  0.33351705  0.66706858  1
  Ni  Ni41  1  0.50049679  0.50030340  0.83370773  1
  Ni  Ni42  1  0.49920923  0.83468081  0.50134421  1
  Ni  Ni43  1  0.33374895  0.66708314  0.66755339  1
  Ni  Ni44  1  0.50049679  0.83386289  0.83370773  1
  Ni  Ni45  1  0.83367969  0.16708314  0.50024152  1
  Ni  Ni46  1  0.66683504  1.00016136  0.66717555  1
  Ni  Ni47  1  0.83359178  0.16708314  0.83400937  1
  Ni  Ni48  1  0.83484225  0.49919693  0.50136929  1
  Ni  Ni49  1  0.66683504  0.33400493  0.66717555  1
  Ni  Ni50  1  0.83377271  0.50039002  0.83367722  1
  Ni  Ni51  1  0.83484225  0.83496936  0.50136929  1
  Ni  Ni52  1  0.66715481  0.66708314  0.66726255  1
  Ni  Ni53  1  0.83377271  0.83377627  0.83367722  1
" 