2014,Ni97Fe3_15,-224.392555864242, 128.048236112655,Ni97Fe3,"# generated using pymatgen
 data_Fe26Ni
_symmetry_space_group_name_H-M   'P 1'
_cell_length_a   7.41507152
_cell_length_b   7.41507152
_cell_length_c   10.48649471
_cell_angle_alpha   90.00000000
_cell_angle_beta   90.00000000
_cell_angle_gamma   90.00000000
_symmetry_Int_Tables_number   1
_chemical_formula_structural   Fe26Ni
_chemical_formula_sum   'Fe52 Ni2'
_cell_volume   576.58193492
_cell_formula_units_Z   2
loop_
 _symmetry_equiv_pos_site_id
 _symmetry_equiv_pos_as_xyz
  1  'x, y, z'
loop_
 _atom_site_type_symbol
 _atom_site_label
 _atom_site_symmetry_multiplicity
 _atom_site_fract_x
 _atom_site_fract_y
 _atom_site_fract_z
 _atom_site_occupancy
  Fe  Fe0  1  1.00272212  0.00352945  0.00350476  1
  Fe  Fe1  1  0.17027607  0.17006679  0.17038465  1
  Fe  Fe2  1  1.00350212  0.00361333  0.33694223  1
  Fe  Fe3  1  1.00272784  0.33761501  0.00350476  1
  Fe  Fe4  1  0.16978479  0.50399594  0.16989214  1
  Fe  Fe5  1  0.00361061  0.33673224  0.33705005  1
  Ni  Ni6  1  0.00424425  0.67091091  0.00350476  1
  Fe  Fe7  1  0.16979065  0.83645731  0.16978195  1
  Fe  Fe8  1  1.00350235  0.67016902  0.33604955  1
  Fe  Fe9  1  0.33683809  0.00350476  0.00350476  1
  Fe  Fe10  1  0.50388554  0.17055220  0.16978195  1
  Fe  Fe11  1  0.33683809  0.00350476  0.33683415  1
  Fe  Fe12  1  0.33681340  0.33762073  0.00350476  1
  Fe  Fe13  1  0.50389140  0.50301358  0.16989214  1
  Fe  Fe14  1  0.33672952  0.33684073  0.33694223  1
  Fe  Fe15  1  0.33686278  0.66938879  0.00350476  1
  Fe  Fe16  1  0.50340012  0.83694273  0.17038465  1
  Fe  Fe17  1  0.33694666  0.67016879  0.33694223  1
  Fe  Fe18  1  0.67095406  1.00348007  0.00350476  1
  Fe  Fe19  1  0.83634691  0.17055807  0.16989214  1
  Fe  Fe20  1  0.67017407  1.00339619  0.33694223  1
  Ni  Ni21  1  0.66943194  0.33609861  0.00350476  1
  Fe  Fe22  1  0.83683809  0.50350476  0.16938917  1
  Fe  Fe23  1  0.67017383  0.33684050  0.33604955  1
  Fe  Fe24  1  0.67094835  0.66939451  0.00350476  1
  Fe  Fe25  1  0.83732927  0.83645145  0.16989214  1
  Fe  Fe26  1  0.67006557  0.67027728  0.33705005  1
  Fe  Fe27  1  0.17017282  0.17017004  0.50350476  1
  Fe  Fe28  1  1.00350212  0.00361333  0.67006729  1
  Fe  Fe29  1  0.17027607  0.17006679  0.83662487  1
  Fe  Fe30  1  0.17016687  0.50351071  0.50350476  1
  Fe  Fe31  1  0.00361061  0.33673224  0.66995947  1
  Fe  Fe32  1  0.16978479  0.50399594  0.83711738  1
  Fe  Fe33  1  0.17016686  0.83683353  0.50350476  1
  Fe  Fe34  1  1.00350235  0.67016902  0.67095997  1
  Fe  Fe35  1  0.16979065  0.83645731  0.83722757  1
  Fe  Fe36  1  0.50350933  0.17017599  0.50350476  1
  Fe  Fe37  1  0.33683809  0.00350476  0.67017537  1
  Fe  Fe38  1  0.50388554  0.17055220  0.83722757  1
  Fe  Fe39  1  0.50350931  0.50349880  0.50350476  1
  Fe  Fe40  1  0.33672952  0.33684073  0.67006729  1
  Fe  Fe41  1  0.50389140  0.50301358  0.83711738  1
  Fe  Fe42  1  0.50350337  0.83683948  0.50350476  1
  Fe  Fe43  1  0.33694666  0.67016879  0.67006729  1
  Fe  Fe44  1  0.50340012  0.83694273  0.83662487  1
  Fe  Fe45  1  0.83683214  0.17017598  0.50350476  1
  Fe  Fe46  1  0.67017407  1.00339619  0.67006729  1
  Fe  Fe47  1  0.83634691  0.17055807  0.83711738  1
  Fe  Fe48  1  0.83683809  0.50350476  0.50350476  1
  Fe  Fe49  1  0.67017383  0.33684050  0.67095997  1
  Fe  Fe50  1  0.83683809  0.50350476  0.83762035  1
  Fe  Fe51  1  0.83684405  0.83683354  0.50350476  1
  Fe  Fe52  1  0.67006557  0.67027728  0.66995947  1
  Fe  Fe53  1  0.83732927  0.83645145  0.83711738  1
" 