3059,Ni97Cr3_9,-200.707622264653, 202.053194453925,Ni97Cr3,"# generated using pymatgen
 data_Cr26Ni
_symmetry_space_group_name_H-M   'P 1'
_cell_length_a   7.60126550
_cell_length_b   7.60126550
_cell_length_c   10.74981276
_cell_angle_alpha   90.00000000
_cell_angle_beta   90.00000000
_cell_angle_gamma   90.00000000
_symmetry_Int_Tables_number   1
_chemical_formula_structural   Cr26Ni
_chemical_formula_sum   'Cr52 Ni2'
_cell_volume   621.11598109
_cell_formula_units_Z   2
loop_
 _symmetry_equiv_pos_site_id
 _symmetry_equiv_pos_as_xyz
  1  'x, y, z'
loop_
 _atom_site_type_symbol
 _atom_site_label
 _atom_site_symmetry_multiplicity
 _atom_site_fract_x
 _atom_site_fract_y
 _atom_site_fract_z
 _atom_site_occupancy
  Cr  Cr0  1  0.99093820  0.99059940  -0.00871165  1
  Cr  Cr1  1  0.15749930  0.15783801  0.15818529  1
  Cr  Cr2  1  0.99093853  0.99092266  0.32473428  1
  Cr  Cr3  1  0.99093820  0.32507663  -0.00871165  1
  Cr  Cr4  1  0.15807083  0.49092266  0.15760841  1
  Cr  Cr5  1  0.99093853  0.32475336  0.32473428  1
  Cr  Cr6  1  -0.00849006  0.65783801  -0.00848380  1
  Cr  Cr7  1  0.15807083  0.82475336  0.15760841  1
  Cr  Cr8  1  -0.00848994  0.65783801  0.32415740  1
  Cr  Cr9  1  0.32550233  -0.00829656  0.99017995  1
  Cr  Cr10  1  0.49115556  0.15783801  0.15778600  1
  Cr  Cr11  1  0.32473853  0.99093949  0.32473424  1
  Cr  Cr12  1  0.32550233  0.32397259  0.99017995  1
  Cr  Cr13  1  0.49117241  0.49151099  0.15818520  1
  Cr  Cr14  1  0.32473853  0.32473653  0.32473424  1
  Cr  Cr15  1  0.32382589  0.65783801  -0.00813376  1
  Cr  Cr16  1  0.49117241  0.82416504  0.15818520  1
  Cr  Cr17  1  0.32415021  0.65783801  0.32415745  1
  Cr  Cr18  1  0.65707449  -0.00772714  0.99075803  1
  Cr  Cr19  1  0.82485915  0.15783801  0.15818525  1
  Cr  Cr20  1  0.65783695  -0.00848901  0.32415749  1
  Cr  Cr21  1  0.65707449  0.32340317  0.99075803  1
  Cr  Cr22  1  0.82427083  0.49093949  0.15760845  1
  Cr  Cr23  1  0.65783695  0.32416504  0.32415749  1
  Cr  Cr24  1  0.65817734  0.65783801  -0.00853494  1
  Cr  Cr25  1  0.82427083  0.82473653  0.15760845  1
  Cr  Cr26  1  0.65785380  0.65783801  0.32455670  1
  Cr  Cr27  1  0.15749942  0.15783801  0.49082649  1
  Cr  Cr28  1  0.99112087  0.99078150  0.65749112  1
  Cr  Cr29  1  0.15888428  0.15783801  0.82450229  1
  Cr  Cr30  1  0.15807115  0.49059940  0.49105434  1
  Cr  Cr31  1  0.99112087  0.32489452  0.65749112  1
  Cr  Cr32  1  0.15788849  0.49078150  0.82485158  1
  Cr  Cr33  1  0.15807115  0.82507663  0.49105434  1
  Cr  Cr34  1  0.99012508  0.65783801  0.65784041  1
  Cr  Cr35  1  0.15788849  0.82489452  0.82485158  1
  Cr  Cr36  1  0.49083201  0.15783801  0.49087763  1
  Cr  Cr37  1  0.32531761  -0.00811743  0.65859732  1
  Ni  Ni38  1  0.49104400  0.15783801  0.82463868  1
  Cr  Cr39  1  0.49193486  0.49227286  0.49158466  1
  Cr  Cr40  1  0.32531761  0.32379345  0.65859732  1
  Cr  Cr41  1  0.49193113  0.49088982  0.82374798  1
  Cr  Cr42  1  0.49193486  0.82340317  0.49158466  1
  Cr  Cr43  1  0.32520672  0.65783801  0.65749159  1
  Cr  Cr44  1  0.49193113  0.82478621  0.82374798  1
  Cr  Cr45  1  0.82518347  0.15783801  0.49047646  1
  Cr  Cr46  1  0.65707823  0.99088982  0.65859471  1
  Cr  Cr47  1  0.82380264  0.15783801  0.82485110  1
  Cr  Cr48  1  0.82350702  0.49170344  0.49216274  1
  Cr  Cr49  1  0.65707823  0.32478621  0.65859471  1
  Cr  Cr50  1  0.82369175  0.49188257  0.82374538  1
  Cr  Cr51  1  0.82350702  0.82397259  0.49216274  1
  Ni  Ni52  1  0.65796536  0.65783801  0.65770401  1
  Cr  Cr53  1  0.82369175  0.82379345  0.82374538  1
" 