7590,Ni97Fe3_3,-224.390919408406, 128.712198651779,Ni97Fe3,"# generated using pymatgen
 data_Fe26Ni
_symmetry_space_group_name_H-M   'P 1'
_cell_length_a   7.41313760
_cell_length_b   7.41313760
_cell_length_c   10.48375974
_cell_angle_alpha   90.00000000
_cell_angle_beta   90.00000000
_cell_angle_gamma   90.00000000
_symmetry_Int_Tables_number   1
_chemical_formula_structural   Fe26Ni
_chemical_formula_sum   'Fe52 Ni2'
_cell_volume   576.13091831
_cell_formula_units_Z   2
loop_
 _symmetry_equiv_pos_site_id
 _symmetry_equiv_pos_as_xyz
  1  'x, y, z'
loop_
 _atom_site_type_symbol
 _atom_site_label
 _atom_site_symmetry_multiplicity
 _atom_site_fract_x
 _atom_site_fract_y
 _atom_site_fract_z
 _atom_site_occupancy
  Fe  Fe0  1  1.00363611  0.00363706  0.00363707  1
  Fe  Fe1  1  0.17030279  0.17030183  0.17030182  1
  Fe  Fe2  1  1.00362848  0.00364374  0.33696945  1
  Fe  Fe3  1  0.00363707  0.33696945  1.00363516  1
  Fe  Fe4  1  0.17030279  0.50363706  0.17030182  1
  Fe  Fe5  1  1.00362797  0.33696945  0.33696945  1
  Fe  Fe6  1  1.00363611  0.67030183  0.00363707  1
  Fe  Fe7  1  0.17030182  0.83696945  0.17030373  1
  Fe  Fe8  1  1.00362848  0.67029515  0.33696945  1
  Fe  Fe9  1  0.33697353  1.00363204  1.00363204  1
  Fe  Fe10  1  0.50364019  0.17030781  0.17030780  1
  Fe  Fe11  1  0.33697708  0.00364374  0.33696945  1
  Fe  Fe12  1  0.33696755  0.33696945  0.00363612  1
  Fe  Fe13  1  0.50364019  0.50363108  0.17030780  1
  Fe  Fe14  1  0.33697760  0.33696945  0.33696945  1
  Fe  Fe15  1  0.33697353  0.67030685  1.00363204  1
  Fe  Fe16  1  0.50363518  0.83696945  0.17029419  1
  Fe  Fe17  1  0.33697708  0.67029516  0.33696945  1
  Fe  Fe18  1  0.67029870  1.00363108  1.00363109  1
  Fe  Fe19  1  0.83696536  0.17030685  0.17030685  1
  Fe  Fe20  1  0.67030277  0.00364425  0.33696945  1
  Fe  Fe21  1  0.67030372  0.33696945  0.00364470  1
  Fe  Fe22  1  0.83696536  0.50363204  0.17030685  1
  Ni  Ni23  1  0.67030278  0.33696945  0.33696945  1
  Fe  Fe24  1  0.67029870  0.67030781  1.00363109  1
  Fe  Fe25  1  0.83697134  0.83696945  0.17030277  1
  Fe  Fe26  1  0.67030277  0.67029464  0.33696945  1
  Fe  Fe27  1  0.17030279  0.17030183  0.50363707  1
  Fe  Fe28  1  1.00363611  0.00363706  0.67030182  1
  Fe  Fe29  1  0.17031041  0.17029515  0.83696945  1
  Fe  Fe30  1  0.17030279  0.50363706  0.50363707  1
  Fe  Fe31  1  0.00363707  0.33696945  0.67030373  1
  Fe  Fe32  1  0.17031041  0.50364374  0.83696945  1
  Fe  Fe33  1  0.17030182  0.83696945  0.50363516  1
  Fe  Fe34  1  1.00363611  0.67030183  0.67030182  1
  Fe  Fe35  1  0.17031093  0.83696945  0.83696945  1
  Fe  Fe36  1  0.50364019  0.17030781  0.50363109  1
  Fe  Fe37  1  0.33697353  1.00363204  0.67030685  1
  Fe  Fe38  1  0.50363612  0.17029464  0.83696945  1
  Fe  Fe39  1  0.50364019  0.50363108  0.50363109  1
  Fe  Fe40  1  0.33696755  0.33696945  0.67030277  1
  Fe  Fe41  1  0.50363612  0.50364425  0.83696945  1
  Fe  Fe42  1  0.50363518  0.83696945  0.50364470  1
  Fe  Fe43  1  0.33697353  0.67030685  0.67030685  1
  Ni  Ni44  1  0.50363612  0.83696945  0.83696945  1
  Fe  Fe45  1  0.83696536  0.17030685  0.50363204  1
  Fe  Fe46  1  0.67029870  1.00363108  0.67030780  1
  Fe  Fe47  1  0.83696181  0.17029516  0.83696945  1
  Fe  Fe48  1  0.83696536  0.50363204  0.50363204  1
  Fe  Fe49  1  0.67030372  0.33696945  0.67029419  1
  Fe  Fe50  1  0.83696181  0.50364374  0.83696945  1
  Fe  Fe51  1  0.83697134  0.83696945  0.50363612  1
  Fe  Fe52  1  0.67029870  0.67030781  0.67030780  1
  Fe  Fe53  1  0.83696130  0.83696945  0.83696945  1
" 