4863,Ni97Fe2Cr0_11,-239.847297676095, 180.309610440201,Ni97Fe2Cr0,"# generated using pymatgen
 data_CrFeNi52
_symmetry_space_group_name_H-M   'P 1'
_cell_length_a   7.46078278
_cell_length_b   7.46078278
_cell_length_c   10.55114020
_cell_angle_alpha   90.00000000
_cell_angle_beta   90.00000000
_cell_angle_gamma   90.00000000
_symmetry_Int_Tables_number   1
_chemical_formula_structural   CrFeNi52
_chemical_formula_sum   'Cr1 Fe1 Ni52'
_cell_volume   587.31106876
_cell_formula_units_Z   1
loop_
 _symmetry_equiv_pos_site_id
 _symmetry_equiv_pos_as_xyz
  1  'x, y, z'
loop_
 _atom_site_type_symbol
 _atom_site_label
 _atom_site_symmetry_multiplicity
 _atom_site_fract_x
 _atom_site_fract_y
 _atom_site_fract_z
 _atom_site_occupancy
  Ni  Ni0  1  1.00026005  1.00033841  1.00028013  1
  Ni  Ni1  1  0.16723273  0.16694030  0.16647977  1
  Ni  Ni2  1  1.00040229  0.00054196  0.33375318  1
  Ni  Ni3  1  0.00133337  0.33283967  0.00129322  1
  Ni  Ni4  1  0.16706382  0.50048565  0.16692513  1
  Ni  Ni5  1  0.00055617  0.33361686  0.33375318  1
  Ni  Ni6  1  0.00141474  0.66805575  0.00136286  1
  Ni  Ni7  1  0.16722793  0.83382831  0.16714792  1
  Ni  Ni8  1  1.00032317  0.66710093  0.33375318  1
  Ni  Ni9  1  0.33385313  1.00031991  0.00052947  1
  Ni  Ni10  1  0.50034472  0.16694511  0.16714792  1
  Ni  Ni11  1  0.33363128  0.00054176  0.33375318  1
  Ni  Ni12  1  0.33383462  0.33391299  1.00028013  1
  Ni  Ni13  1  0.50020373  0.50018007  0.16659430  1
  Ni  Ni14  1  0.33363107  0.33377074  0.33375318  1
  Ni  Ni15  1  0.33376700  0.66700796  1.00031849  1
  Ni  Ni16  1  0.50003966  0.83413338  0.16681635  1
  Ni  Ni17  1  0.33386416  0.66694701  0.33375318  1
  Ni  Ni18  1  0.66716508  1.00040603  1.00031849  1
  Ni  Ni19  1  0.83368738  0.16710921  0.16692513  1
  Ni  Ni20  1  0.66722602  1.00030888  0.33375318  1
  Ni  Ni21  1  0.66611728  0.33275829  0.00136286  1
  Ni  Ni22  1  0.83399077  0.50018227  0.16701091  1
  Ni  Ni23  1  0.66707210  0.33384987  0.33375318  1
  Ni  Ni24  1  0.66605782  0.66811522  0.00109456  1
  Ni  Ni25  1  0.83399297  0.83396930  0.16659430  1
  Ni  Ni26  1  0.66707220  0.66710083  0.33375318  1
  Ni  Ni27  1  0.16723273  0.16694030  0.50102660  1
  Ni  Ni28  1  1.00026005  1.00033841  0.66722623  1
  Fe  Fe29  1  0.16745816  0.16671487  0.83375318  1
  Ni  Ni30  1  0.16706382  0.50048565  0.50058124  1
  Ni  Ni31  1  0.00133337  0.33283967  0.66621315  1
  Ni  Ni32  1  0.16860600  0.50115921  0.83375318  1
  Ni  Ni33  1  0.16722793  0.83382831  0.50035844  1
  Ni  Ni34  1  0.00141474  0.66805575  0.66614350  1
  Ni  Ni35  1  0.16725041  0.83312219  0.83375318  1
  Ni  Ni36  1  0.50034472  0.16694511  0.50035844  1
  Ni  Ni37  1  0.33385313  1.00031991  0.66697690  1
  Ni  Ni38  1  0.50105085  0.16692263  0.83375318  1
  Ni  Ni39  1  0.50020373  0.50018007  0.50091206  1
  Ni  Ni40  1  0.33383462  0.33391299  0.66722623  1
  Ni  Ni41  1  0.49830125  0.49990860  0.83375318  1
  Ni  Ni42  1  0.50003966  0.83413338  0.50069002  1
  Ni  Ni43  1  0.33376700  0.66700796  0.66718787  1
  Ni  Ni44  1  0.49972681  0.83444623  0.83375318  1
  Ni  Ni45  1  0.83368738  0.16710921  0.50058124  1
  Ni  Ni46  1  0.66716508  1.00040603  0.66718787  1
  Ni  Ni47  1  0.83301382  0.16556703  0.83375318  1
  Ni  Ni48  1  0.83399077  0.50018227  0.50049546  1
  Ni  Ni49  1  0.66611728  0.33275829  0.66614350  1
  Cr  Cr50  1  0.83404812  0.50012491  0.83375318  1
  Ni  Ni51  1  0.83399297  0.83396930  0.50091206  1
  Ni  Ni52  1  0.66605782  0.66811522  0.66641180  1
  Ni  Ni53  1  0.83426444  0.83587179  0.83375318  1
" 