1002,Ni97Fe2Cr0_19,-239.84290879305, 180.359577986195,Ni97Fe2Cr0,"# generated using pymatgen
 data_CrFeNi52
_symmetry_space_group_name_H-M   'P 1'
_cell_length_a   7.46224677
_cell_length_b   7.46224677
_cell_length_c   10.55321059
_cell_angle_alpha   90.00000000
_cell_angle_beta   90.00000000
_cell_angle_gamma   90.00000000
_symmetry_Int_Tables_number   1
_chemical_formula_structural   CrFeNi52
_chemical_formula_sum   'Cr1 Fe1 Ni52'
_cell_volume   587.65687005
_cell_formula_units_Z   1
loop_
 _symmetry_equiv_pos_site_id
 _symmetry_equiv_pos_as_xyz
  1  'x, y, z'
loop_
 _atom_site_type_symbol
 _atom_site_label
 _atom_site_symmetry_multiplicity
 _atom_site_fract_x
 _atom_site_fract_y
 _atom_site_fract_z
 _atom_site_occupancy
  Ni  Ni0  1  0.00032168  1.00029660  0.00048571  1
  Ni  Ni1  1  0.16697326  0.16700576  0.16698834  1
  Ni  Ni2  1  0.00032168  1.00029660  0.33349097  1
  Ni  Ni3  1  0.00032168  0.33343930  0.99961144  1
  Ni  Ni4  1  0.16695463  0.50030537  0.16698834  1
  Ni  Ni5  1  0.00032168  0.33343930  0.33436524  1
  Ni  Ni6  1  0.00032168  0.66723366  1.00010704  1
  Ni  Ni7  1  0.16700260  0.83365386  0.16698834  1
  Ni  Ni8  1  0.00032168  0.66723366  0.33386964  1
  Ni  Ni9  1  0.33321648  0.00054398  0.99985418  1
  Ni  Ni10  1  0.50032168  0.16695787  0.16698834  1
  Ni  Ni11  1  0.33321648  0.00054398  0.33412251  1
  Ni  Ni12  1  0.33364766  0.33362033  1.00029389  1
  Ni  Ni13  1  0.50032168  0.50033476  0.16698834  1
  Ni  Ni14  1  0.33364766  0.33362033  0.33368279  1
  Ni  Ni15  1  0.33339819  0.66679974  1.00004294  1
  Ni  Ni16  1  0.50032168  0.83367243  0.16698834  1
  Ni  Ni17  1  0.33339819  0.66679974  0.33393374  1
  Ni  Ni18  1  0.66742687  0.00054398  0.99985418  1
  Ni  Ni19  1  0.83367009  0.16700576  0.16698834  1
  Ni  Ni20  1  0.66742687  0.00054398  0.33412251  1
  Ni  Ni21  1  0.66699569  0.33362033  1.00029389  1
  Ni  Ni22  1  0.83368872  0.50030537  0.16698834  1
  Ni  Ni23  1  0.66699569  0.33362033  0.33368279  1
  Ni  Ni24  1  0.66724516  0.66679974  1.00004294  1
  Ni  Ni25  1  0.83364075  0.83365386  0.16698834  1
  Ni  Ni26  1  0.66724516  0.66679974  0.33393374  1
  Ni  Ni27  1  0.16793541  0.16772619  0.49939662  1
  Cr  Cr28  1  0.00032168  0.99963278  0.66698834  1
  Ni  Ni29  1  0.16793541  0.16772619  0.83458007  1
  Ni  Ni30  1  0.16686517  0.50042317  0.50046282  1
  Fe  Fe31  1  0.00032168  0.33536836  0.66698834  1
  Ni  Ni32  1  0.16686517  0.50042317  0.83351387  1
  Ni  Ni33  1  0.16784761  0.83282462  0.49946953  1
  Ni  Ni34  1  0.00032168  0.66590653  0.66698834  1
  Ni  Ni35  1  0.16784761  0.83282462  0.83450716  1
  Ni  Ni36  1  0.50032168  0.16674788  0.50052989  1
  Ni  Ni37  1  0.33492745  0.00078286  0.66698834  1
  Ni  Ni38  1  0.50032168  0.16674788  0.83344680  1
  Ni  Ni39  1  0.50032168  0.50034091  0.50028813  1
  Ni  Ni40  1  0.33445741  0.33379492  0.66698834  1
  Ni  Ni41  1  0.50032168  0.50034091  0.83368856  1
  Ni  Ni42  1  0.50032168  0.83387753  0.50058719  1
  Ni  Ni43  1  0.33333804  0.66639417  0.66698834  1
  Ni  Ni44  1  0.50032168  0.83387753  0.83338950  1
  Ni  Ni45  1  0.83270794  0.16772619  0.49939662  1
  Ni  Ni46  1  0.66571590  0.00078286  0.66698834  1
  Ni  Ni47  1  0.83270794  0.16772619  0.83458007  1
  Ni  Ni48  1  0.83377818  0.50042317  0.50046282  1
  Ni  Ni49  1  0.66618594  0.33379492  0.66698834  1
  Ni  Ni50  1  0.83377818  0.50042317  0.83351387  1
  Ni  Ni51  1  0.83279574  0.83282462  0.49946953  1
  Ni  Ni52  1  0.66730531  0.66639417  0.66698834  1
  Ni  Ni53  1  0.83279574  0.83282462  0.83450716  1
" 