8211,Ni97Fe3_6,-224.374244488279, 128.482089731871,Ni97Fe3,"# generated using pymatgen
 data_Fe26Ni
_symmetry_space_group_name_H-M   'P 1'
_cell_length_a   7.41326266
_cell_length_b   7.41326266
_cell_length_c   10.48393659
_cell_angle_alpha   90.00000000
_cell_angle_beta   90.00000000
_cell_angle_gamma   90.00000000
_symmetry_Int_Tables_number   1
_chemical_formula_structural   Fe26Ni
_chemical_formula_sum   'Fe52 Ni2'
_cell_volume   576.16007572
_cell_formula_units_Z   2
loop_
 _symmetry_equiv_pos_site_id
 _symmetry_equiv_pos_as_xyz
  1  'x, y, z'
loop_
 _atom_site_type_symbol
 _atom_site_label
 _atom_site_symmetry_multiplicity
 _atom_site_fract_x
 _atom_site_fract_y
 _atom_site_fract_z
 _atom_site_occupancy
  Fe  Fe0  1  1.00362761  1.00361722  1.00362760  1
  Fe  Fe1  1  0.17029553  0.17029429  0.17029555  1
  Fe  Fe2  1  1.00362761  0.00362890  0.33696221  1
  Fe  Fe3  1  0.00362889  0.33697137  0.00362887  1
  Fe  Fe4  1  0.17028907  0.50363283  0.17028907  1
  Fe  Fe5  1  0.00362889  0.33695968  0.33696095  1
  Ni  Ni6  1  0.00363257  0.67029923  0.00363256  1
  Fe  Fe7  1  0.17028907  0.83695574  0.17028907  1
  Fe  Fe8  1  1.00362761  0.67029427  0.33695103  1
  Fe  Fe9  1  0.33695104  1.00361771  1.00362760  1
  Fe  Fe10  1  0.50362763  0.17029429  0.17029426  1
  Fe  Fe11  1  0.33696095  0.00362762  0.33696095  1
  Fe  Fe12  1  0.33694976  0.33697087  0.00362887  1
  Fe  Fe13  1  0.50362763  0.50362636  0.17029555  1
  Fe  Fe14  1  0.33695967  0.33696096  0.33695969  1
  Fe  Fe15  1  0.33695055  0.67029427  1.00362760  1
  Fe  Fe16  1  0.50362762  0.83696220  0.17029555  1
  Fe  Fe17  1  0.33696223  0.67029427  0.33696221  1
  Fe  Fe18  1  0.67030420  1.00361643  0.00362887  1
  Fe  Fe19  1  0.83695969  0.17029429  0.17029555  1
  Fe  Fe20  1  0.67029429  1.00362634  0.33695969  1
  Fe  Fe21  1  0.67030420  0.33697087  1.00361769  1
  Fe  Fe22  1  0.83696616  0.50363282  0.17028906  1
  Fe  Fe23  1  0.67029429  0.33696096  0.33697087  1
  Fe  Fe24  1  0.67030471  0.67029555  0.00362887  1
  Fe  Fe25  1  0.83696616  0.83695574  0.17028907  1
  Fe  Fe26  1  0.67029301  0.67029555  0.33696095  1
  Fe  Fe27  1  0.17029428  0.17029304  0.50362635  1
  Fe  Fe28  1  1.00361770  0.00363881  0.67029303  1
  Fe  Fe29  1  0.17029553  0.17029304  0.83696095  1
  Fe  Fe30  1  0.17029427  0.50362887  0.50362635  1
  Fe  Fe31  1  1.00361719  0.33695968  0.67029303  1
  Fe  Fe32  1  0.17028906  0.50363408  0.83696744  1
  Fe  Fe33  1  0.17029427  0.83696094  0.50362764  1
  Fe  Fe34  1  1.00361770  0.67028436  0.67030421  1
  Fe  Fe35  1  0.17028907  0.83695573  0.83696615  1
  Fe  Fe36  1  0.50363283  0.17029949  0.50363283  1
  Fe  Fe37  1  0.33697086  0.00363753  0.67029430  1
  Fe  Fe38  1  0.50363283  0.17029950  0.83695575  1
  Fe  Fe39  1  0.50363283  0.50362241  0.50363283  1
  Fe  Fe40  1  0.33697135  0.33696096  0.67029430  1
  Fe  Fe41  1  0.50363284  0.50362115  0.83695446  1
  Fe  Fe42  1  0.50362637  0.83696095  0.50362635  1
  Fe  Fe43  1  0.33697214  0.67028436  0.67029303  1
  Fe  Fe44  1  0.50362637  0.83696220  0.83696095  1
  Fe  Fe45  1  0.83695574  0.17029950  0.50363283  1
  Fe  Fe46  1  0.67029429  0.00363802  0.67029430  1
  Fe  Fe47  1  0.83695448  0.17029950  0.83695446  1
  Fe  Fe48  1  0.83695575  0.50362241  0.50363284  1
  Ni  Ni49  1  0.67028933  0.33695600  0.67028934  1
  Fe  Fe50  1  0.83696095  0.50362762  0.83696095  1
  Fe  Fe51  1  0.83696221  0.83696094  0.50362635  1
  Fe  Fe52  1  0.67029301  0.67028386  0.67029303  1
  Fe  Fe53  1  0.83696742  0.83695573  0.83696744  1
" 