6383,Ni97Cr3_10,-200.661711928292, 201.098527416097,Ni97Cr3,"# generated using pymatgen
 data_Cr26Ni
_symmetry_space_group_name_H-M   'P 1'
_cell_length_a   7.60179251
_cell_length_b   7.60179251
_cell_length_c   10.75055806
_cell_angle_alpha   90.00000000
_cell_angle_beta   90.00000000
_cell_angle_gamma   90.00000000
_symmetry_Int_Tables_number   1
_chemical_formula_structural   Cr26Ni
_chemical_formula_sum   'Cr52 Ni2'
_cell_volume   621.24517924
_cell_formula_units_Z   2
loop_
 _symmetry_equiv_pos_site_id
 _symmetry_equiv_pos_as_xyz
  1  'x, y, z'
loop_
 _atom_site_type_symbol
 _atom_site_label
 _atom_site_symmetry_multiplicity
 _atom_site_fract_x
 _atom_site_fract_y
 _atom_site_fract_z
 _atom_site_occupancy
  Cr  Cr0  1  -0.00852933  0.99011485  -0.00852500  1
  Cr  Cr1  1  0.15813747  0.15781249  0.15814137  1
  Cr  Cr2  1  -0.00852955  -0.00852955  0.32447063  1
  Cr  Cr3  1  0.99091591  0.32526730  0.99091748  1
  Cr  Cr4  1  0.15707017  0.49187108  0.15707160  1
  Cr  Cr5  1  0.99091591  0.32391588  0.32502814  1
  Ni  Ni6  1  -0.00877071  0.65771197  -0.00876860  1
  Cr  Cr7  1  0.15706907  0.82372756  0.15707057  1
  Cr  Cr8  1  0.99091589  0.65802536  0.32463945  1
  Cr  Cr9  1  0.32408766  0.99108777  -0.00852491  1
  Cr  Cr10  1  0.49113813  0.15780313  0.15780200  1
  Cr  Cr11  1  0.32391588  0.99091591  0.32391311  1
  Cr  Cr12  1  0.32464219  0.32429907  0.99091749  1
  Cr  Cr13  1  0.49112877  0.49080378  0.15814137  1
  Cr  Cr14  1  0.32447063  0.32447063  0.32447063  1
  Cr  Cr15  1  0.32367395  0.65802534  0.99091748  1
  Cr  Cr16  1  0.49113793  0.82480499  0.15814139  1
  Cr  Cr17  1  0.32502537  0.65802534  0.32502814  1
  Cr  Cr18  1  0.65785342  0.99108784  0.99108670  1
  Cr  Cr19  1  0.82413627  0.15780332  0.15814139  1
  Cr  Cr20  1  0.65802536  0.99091589  0.32430180  1
  Cr  Cr21  1  0.65785349  0.32485360  -0.00852491  1
  Cr  Cr22  1  0.82521370  0.49187219  0.15707057  1
  Cr  Cr23  1  0.65802534  0.32502537  0.32391311  1
  Cr  Cr24  1  0.65882640  0.65747058  -0.00852500  1
  Cr  Cr25  1  0.82520556  0.82373569  0.15706964  1
  Cr  Cr26  1  0.65747081  0.65747081  0.32447063  1
  Cr  Cr27  1  0.15781249  0.15813747  0.49079989  1
  Cr  Cr28  1  0.99011485  -0.00852933  0.65746625  1
  Cr  Cr29  1  0.15813812  0.15813812  0.82447063  1
  Cr  Cr30  1  0.15780313  0.49113813  0.49113925  1
  Cr  Cr31  1  0.99108777  0.32408766  0.65746616  1
  Cr  Cr32  1  0.15706819  0.49187307  0.82520298  1
  Cr  Cr33  1  0.15780332  0.82413627  0.49079986  1
  Cr  Cr34  1  0.99108784  0.65785342  0.65785455  1
  Cr  Cr35  1  0.15706611  0.82339966  0.82554397  1
  Cr  Cr36  1  0.49187108  0.15707017  0.49186966  1
  Cr  Cr37  1  0.32526730  0.99091591  0.65802378  1
  Cr  Cr38  1  0.49187307  0.15706819  0.82373828  1
  Cr  Cr39  1  0.49080378  0.49112877  0.49079989  1
  Cr  Cr40  1  0.32429907  0.32464219  0.65802376  1
  Cr  Cr41  1  0.49080314  0.49080314  0.82447063  1
  Cr  Cr42  1  0.49187219  0.82521370  0.49187068  1
  Cr  Cr43  1  0.32485360  0.65785349  0.65746616  1
  Cr  Cr44  1  0.49187514  0.82554159  0.82339728  1
  Cr  Cr45  1  0.82372756  0.15706907  0.49187068  1
  Ni  Ni46  1  0.65771197  -0.00877071  0.65770986  1
  Cr  Cr47  1  0.82339966  0.15706611  0.82339728  1
  Cr  Cr48  1  0.82480499  0.49113793  0.49079986  1
  Cr  Cr49  1  0.65802534  0.32367395  0.65802378  1
  Cr  Cr50  1  0.82554159  0.49187514  0.82554397  1
  Cr  Cr51  1  0.82373569  0.82520556  0.49187162  1
  Cr  Cr52  1  0.65747058  0.65882640  0.65746625  1
  Cr  Cr53  1  0.82447063  0.82447063  0.82447063  1
" 