7323,Ni97Fe2Cr0_13,-239.833373914862, 180.475841230295,Ni97Fe2Cr0,"# generated using pymatgen
 data_CrFeNi52
_symmetry_space_group_name_H-M   'P 1'
_cell_length_a   7.46098754
_cell_length_b   7.46098754
_cell_length_c   10.55142977
_cell_angle_alpha   90.00000000
_cell_angle_beta   90.00000000
_cell_angle_gamma   90.00000000
_symmetry_Int_Tables_number   1
_chemical_formula_structural   CrFeNi52
_chemical_formula_sum   'Cr1 Fe1 Ni52'
_cell_volume   587.35942484
_cell_formula_units_Z   1
loop_
 _symmetry_equiv_pos_site_id
 _symmetry_equiv_pos_as_xyz
  1  'x, y, z'
loop_
 _atom_site_type_symbol
 _atom_site_label
 _atom_site_symmetry_multiplicity
 _atom_site_fract_x
 _atom_site_fract_y
 _atom_site_fract_z
 _atom_site_occupancy
  Ni  Ni0  1  0.00040612  0.00047564  0.00051323  1
  Ni  Ni1  1  0.16703349  0.16691148  0.16709950  1
  Ni  Ni2  1  0.00040612  0.00047008  0.33370005  1
  Ni  Ni3  1  0.00040612  0.33373467  1.00028513  1
  Ni  Ni4  1  0.16695290  0.50053921  0.16686052  1
  Ni  Ni5  1  0.00040612  0.33382478  0.33369739  1
  Ni  Ni6  1  0.00040612  0.66699997  0.99957860  1
  Ni  Ni7  1  0.16678001  0.83376538  0.16709678  1
  Ni  Ni8  1  0.00040612  0.66692075  0.33440194  1
  Ni  Ni9  1  0.33356454  1.00016076  0.99993091  1
  Ni  Ni10  1  0.50040612  0.16708770  0.16685925  1
  Ni  Ni11  1  0.33364549  1.00015955  0.33403848  1
  Ni  Ni12  1  0.33241140  0.33290687  0.00105001  1
  Ni  Ni13  1  0.50040612  0.50028419  0.16729503  1
  Ni  Ni14  1  0.33347580  0.33397054  0.33403930  1
  Ni  Ni15  1  0.33274510  0.66813105  0.00136740  1
  Ni  Ni16  1  0.50040612  0.83384896  0.16686312  1
  Ni  Ni17  1  0.33378882  0.66708876  0.33369869  1
  Ni  Ni18  1  0.66724769  1.00016076  0.99993091  1
  Ni  Ni19  1  0.83377874  0.16691148  0.16709950  1
  Ni  Ni20  1  0.66716674  1.00015955  0.33403848  1
  Ni  Ni21  1  0.66840084  0.33290687  0.00105001  1
  Ni  Ni22  1  0.83385933  0.50053921  0.16686052  1
  Ni  Ni23  1  0.66733643  0.33397054  0.33403930  1
  Ni  Ni24  1  0.66806713  0.66813105  0.00136740  1
  Ni  Ni25  1  0.83403223  0.83376538  0.16709678  1
  Ni  Ni26  1  0.66702342  0.66708876  0.33369869  1
  Ni  Ni27  1  0.16692622  0.16690636  0.50031219  1
  Ni  Ni28  1  0.00040612  0.00125674  0.66701045  1
  Ni  Ni29  1  0.16690947  0.16689428  0.83381417  1
  Ni  Ni30  1  0.16717028  0.50031419  0.50056891  1
  Ni  Ni31  1  0.00040612  0.33307542  0.66724432  1
  Ni  Ni32  1  0.16550246  0.50037442  0.83371704  1
  Ni  Ni33  1  0.16703765  0.83401430  0.50031850  1
  Fe  Fe34  1  0.00040612  0.66726893  0.66698301  1
  Ni  Ni35  1  0.16695859  0.83399041  0.83375614  1
  Ni  Ni36  1  0.50040612  0.16708016  0.50086534  1
  Ni  Ni37  1  0.33326162  0.99986022  0.66724127  1
  Ni  Ni38  1  0.50040612  0.16541988  0.83348567  1
  Ni  Ni39  1  0.50040612  0.50039539  0.50010558  1
  Ni  Ni40  1  0.33216608  0.33325090  0.66617601  1
  Cr  Cr41  1  0.50040612  0.50010665  0.83413405  1
  Ni  Ni42  1  0.50040612  0.83374901  0.50053342  1
  Ni  Ni43  1  0.33350167  0.66807910  0.66619994  1
  Ni  Ni44  1  0.50040612  0.83529585  0.83380330  1
  Ni  Ni45  1  0.83388601  0.16690636  0.50031219  1
  Ni  Ni46  1  0.66755062  0.99986022  0.66724127  1
  Ni  Ni47  1  0.83390277  0.16689428  0.83381417  1
  Ni  Ni48  1  0.83364196  0.50031419  0.50056891  1
  Ni  Ni49  1  0.66864615  0.33325090  0.66617601  1
  Ni  Ni50  1  0.83530977  0.50037442  0.83371704  1
  Ni  Ni51  1  0.83377458  0.83401430  0.50031850  1
  Ni  Ni52  1  0.66731056  0.66807910  0.66619994  1
  Ni  Ni53  1  0.83385365  0.83399041  0.83375614  1
" 