457,Ni97Fe2Cr0_2,-239.840677091791, 180.234391492648,Ni97Fe2Cr0,"# generated using pymatgen
 data_CrFeNi52
_symmetry_space_group_name_H-M   'P 1'
_cell_length_a   7.46060115
_cell_length_b   7.46060115
_cell_length_c   10.55088333
_cell_angle_alpha   90.00000000
_cell_angle_beta   90.00000000
_cell_angle_gamma   90.00000000
_symmetry_Int_Tables_number   1
_chemical_formula_structural   CrFeNi52
_chemical_formula_sum   'Cr1 Fe1 Ni52'
_cell_volume   587.26817467
_cell_formula_units_Z   1
loop_
 _symmetry_equiv_pos_site_id
 _symmetry_equiv_pos_as_xyz
  1  'x, y, z'
loop_
 _atom_site_type_symbol
 _atom_site_label
 _atom_site_symmetry_multiplicity
 _atom_site_fract_x
 _atom_site_fract_y
 _atom_site_fract_z
 _atom_site_occupancy
  Ni  Ni0  1  0.00060892  0.00054002  0.00044121  1
  Ni  Ni1  1  0.16695400  0.16724340  0.16703267  1
  Ni  Ni2  1  0.00061195  0.00054117  0.33371771  1
  Ni  Ni3  1  0.00060626  0.33359114  0.99973077  1
  Ni  Ni4  1  0.16695231  0.50033953  0.16726059  1
  Ni  Ni5  1  0.00061241  0.33358499  0.33443178  1
  Ni  Ni6  1  0.00044638  0.66716439  0.00067218  1
  Ni  Ni7  1  0.16722899  0.83371386  0.16725984  1
  Ni  Ni8  1  0.00196136  0.66717181  0.33371718  1
  Ni  Ni9  1  0.33334882  0.00084858  1.00010015  1
  Ni  Ni10  1  0.50048354  0.16696841  0.16725984  1
  Ni  Ni11  1  0.33333480  0.00086260  0.33406766  1
  Ni  Ni12  1  0.33365738  0.33358848  0.00044121  1
  Ni  Ni13  1  0.49937840  0.49951269  0.16618836  1
  Ni  Ni14  1  0.33365623  0.33358545  0.33371771  1
  Ni  Ni15  1  0.33350183  0.66685612  1.00032417  1
  Ni  Ni16  1  0.49936944  0.83482796  0.16617814  1
  Ni  Ni17  1  0.33195092  0.66685025  0.33407108  1
  Ni  Ni18  1  0.66734128  0.00069557  1.00032417  1
  Ni  Ni19  1  0.83385787  0.16724509  0.16726059  1
  Ni  Ni20  1  0.66734715  0.00224648  0.33407108  1
  Ni  Ni21  1  0.66703301  0.33375102  0.00067218  1
  Ni  Ni22  1  0.83495276  0.49924464  0.16619684  1
  Ni  Ni23  1  0.66702559  0.33223604  0.33371718  1
  Ni  Ni24  1  0.66734288  0.66685452  0.99989709  1
  Ni  Ni25  1  0.83468471  0.83481900  0.16618836  1
  Cr  Cr26  1  0.66728603  0.66691137  0.33400513  1
  Ni  Ni27  1  0.16717692  0.16702048  0.50047712  1
  Ni  Ni28  1  0.00061275  0.99979405  0.66713655  1
  Ni  Ni29  1  0.16719590  0.16700150  0.83380471  1
  Ni  Ni30  1  0.16717629  0.50056126  0.50025109  1
  Fe  Fe31  1  0.00066380  0.33353360  0.66724258  1
  Ni  Ni32  1  0.16718691  0.50068270  0.83379583  1
  Ni  Ni33  1  0.16710554  0.83372372  0.50019582  1
  Ni  Ni34  1  0.00044463  0.66787520  0.66689759  1
  Ni  Ni35  1  0.16710860  0.83360417  0.83384123  1
  Ni  Ni36  1  0.50047368  0.16709186  0.50019582  1
  Ni  Ni37  1  0.33305148  0.00114592  0.66713059  1
  Ni  Ni38  1  0.50059323  0.16708880  0.83384123  1
  Ni  Ni39  1  0.49943064  0.49942226  0.50123246  1
  Ni  Ni40  1  0.33440335  0.33358465  0.66713655  1
  Ni  Ni41  1  0.50041141  0.50042305  0.83384104  1
  Ni  Ni42  1  0.49938773  0.83480967  0.50160828  1
  Ni  Ni43  1  0.33320872  0.66655893  0.66690267  1
  Ni  Ni44  1  0.50041284  0.83378456  0.83349043  1
  Ni  Ni45  1  0.83363614  0.16702111  0.50025109  1
  Ni  Ni46  1  0.66763847  0.00098868  0.66690267  1
  Ni  Ni47  1  0.83351470  0.16701049  0.83379583  1
  Ni  Ni48  1  0.83474882  0.49944859  0.50133024  1
  Ni  Ni49  1  0.66632220  0.33375277  0.66689759  1
  Ni  Ni50  1  0.83370521  0.50049219  0.83378631  1
  Ni  Ni51  1  0.83477514  0.83476676  0.50123246  1
  Ni  Ni52  1  0.66763515  0.66656225  0.66732610  1
  Ni  Ni53  1  0.83377435  0.83378599  0.83384104  1
" 