7916,Ni97Cr3_14,-200.691763381511, 201.274132312272,Ni97Cr3,"# generated using pymatgen
 data_Cr26Ni
_symmetry_space_group_name_H-M   'P 1'
_cell_length_a   7.60104688
_cell_length_b   7.60104688
_cell_length_c   10.74950358
_cell_angle_alpha   90.00000000
_cell_angle_beta   90.00000000
_cell_angle_gamma   90.00000000
_symmetry_Int_Tables_number   1
_chemical_formula_structural   Cr26Ni
_chemical_formula_sum   'Cr52 Ni2'
_cell_volume   621.06239001
_cell_formula_units_Z   2
loop_
 _symmetry_equiv_pos_site_id
 _symmetry_equiv_pos_as_xyz
  1  'x, y, z'
loop_
 _atom_site_type_symbol
 _atom_site_label
 _atom_site_symmetry_multiplicity
 _atom_site_fract_x
 _atom_site_fract_y
 _atom_site_fract_z
 _atom_site_occupancy
  Cr  Cr0  1  -0.00783852  -0.00783852  0.99021193  1
  Cr  Cr1  1  0.15785296  0.15785296  0.15780060  1
  Cr  Cr2  1  -0.00858841  -0.00858841  0.32474287  1
  Cr  Cr3  1  -0.00840430  0.32376849  0.99077992  1
  Cr  Cr4  1  0.15785292  0.49152615  0.15819716  1
  Cr  Cr5  1  0.99084480  0.32451803  0.32417378  1
  Cr  Cr6  1  0.99106906  0.65762587  -0.00869370  1
  Cr  Cr7  1  0.15784530  0.82417696  0.15819750  1
  Cr  Cr8  1  -0.00859602  0.65762676  0.32474292  1
  Cr  Cr9  1  0.32376849  -0.00840430  0.99077992  1
  Cr  Cr10  1  0.49152615  0.15785292  0.15819716  1
  Cr  Cr11  1  0.32451803  0.99084480  0.32417378  1
  Cr  Cr12  1  0.32376808  0.32376808  0.99038482  1
  Cr  Cr13  1  0.49095936  0.49095936  0.15762808  1
  Cr  Cr14  1  0.32451798  0.32451798  0.32457035  1
  Cr  Cr15  1  0.32486043  0.65819301  -0.00812487  1
  Cr  Cr16  1  0.49096697  0.82474419  0.15762802  1
  Cr  Cr17  1  0.32452564  0.65819399  0.32417344  1
  Cr  Cr18  1  0.65762587  0.99106906  -0.00869370  1
  Cr  Cr19  1  0.82417696  0.15784530  0.15819750  1
  Cr  Cr20  1  0.65762676  -0.00859602  0.32474292  1
  Cr  Cr21  1  0.65819301  0.32486043  -0.00812487  1
  Cr  Cr22  1  0.82474419  0.49096697  0.15762802  1
  Cr  Cr23  1  0.65819399  0.32452564  0.32417344  1
  Cr  Cr24  1  0.65762684  0.65762684  0.99095954  1
  Cr  Cr25  1  0.82474414  0.82474414  0.15762802  1
  Cr  Cr26  1  0.65762681  0.65762681  0.32474292  1
  Cr  Cr27  1  0.15860287  0.15860287  0.49198613  1
  Cr  Cr28  1  -0.00801375  -0.00801375  0.65860167  1
  Ni  Ni29  1  0.15870391  0.15870391  0.82366875  1
  Cr  Cr30  1  0.15860246  0.49077525  0.49159103  1
  Cr  Cr31  1  -0.00702007  0.32376826  0.65860155  1
  Cr  Cr32  1  0.15860269  0.48939102  0.82376939  1
  Cr  Cr33  1  0.15751052  0.82417794  0.49049582  1
  Cr  Cr34  1  0.99089442  0.65780081  0.65750764  1
  Cr  Cr35  1  0.15751109  0.82556446  0.82486299  1
  Cr  Cr36  1  0.49077525  0.15860246  0.49159103  1
  Cr  Cr37  1  0.32376826  -0.00702007  0.65860155  1
  Cr  Cr38  1  0.48939102  0.15860269  0.82376939  1
  Cr  Cr39  1  0.49020947  0.49020947  0.49215902  1
  Ni  Ni40  1  0.32366704  0.32366704  0.65870220  1
  Cr  Cr41  1  0.49038470  0.49038470  0.82376928  1
  Cr  Cr42  1  0.49130189  0.82474507  0.49106465  1
  Cr  Cr43  1  0.32485986  0.65680649  0.65750795  1
  Cr  Cr44  1  0.49147653  0.82457013  0.82486331  1
  Cr  Cr45  1  0.82417794  0.15751052  0.49049582  1
  Cr  Cr46  1  0.65780081  0.99089442  0.65750764  1
  Cr  Cr47  1  0.82556446  0.15751109  0.82486299  1
  Cr  Cr48  1  0.82474507  0.49130189  0.49106465  1
  Cr  Cr49  1  0.65680649  0.32485986  0.65750795  1
  Cr  Cr50  1  0.82457013  0.49147653  0.82486331  1
  Cr  Cr51  1  0.82474411  0.82474411  0.49141141  1
  Cr  Cr52  1  0.65780165  0.65780165  0.65785402  1
  Cr  Cr53  1  0.82456929  0.82456929  0.82451692  1
" 