5031,Ni97Cr3_7,-200.676514660827, 200.944892307233,Ni97Cr3,"# generated using pymatgen
 data_Cr26Ni
_symmetry_space_group_name_H-M   'P 1'
_cell_length_a   7.60103522
_cell_length_b   7.60103522
_cell_length_c   10.74948710
_cell_angle_alpha   90.00000000
_cell_angle_beta   90.00000000
_cell_angle_gamma   90.00000000
_symmetry_Int_Tables_number   1
_chemical_formula_structural   Cr26Ni
_chemical_formula_sum   'Cr52 Ni2'
_cell_volume   621.05953377
_cell_formula_units_Z   2
loop_
 _symmetry_equiv_pos_site_id
 _symmetry_equiv_pos_as_xyz
  1  'x, y, z'
loop_
 _atom_site_type_symbol
 _atom_site_label
 _atom_site_symmetry_multiplicity
 _atom_site_fract_x
 _atom_site_fract_y
 _atom_site_fract_z
 _atom_site_occupancy
  Cr  Cr0  1  0.99117838  -0.00880593  -0.00881377  1
  Cr  Cr1  1  0.15807505  0.15729607  0.15773478  1
  Cr  Cr2  1  0.99085103  -0.00847858  0.32384221  1
  Cr  Cr3  1  -0.00881295  0.32452038  -0.00881377  1
  Cr  Cr4  1  0.15807505  0.49140838  0.15812415  1
  Cr  Cr5  1  -0.00807398  0.32525936  0.32526006  1
  Cr  Cr6  1  -0.00881297  0.65784422  -0.00881377  1
  Cr  Cr7  1  0.15751807  0.82485438  0.15717505  1
  Cr  Cr8  1  -0.00807307  0.65677860  0.32491929  1
  Cr  Cr9  1  0.32452823  0.99118542  -0.00881377  1
  Cr  Cr10  1  0.49096407  0.15840971  0.15773478  1
  Cr  Cr11  1  0.32559386  0.99044552  0.32491929  1
  Cr  Cr12  1  0.32451089  0.32452036  -0.00881377  1
  Cr  Cr13  1  0.49152105  0.49085140  0.15717505  1
  Cr  Cr14  1  0.32344526  0.32526026  0.32491929  1
  Cr  Cr15  1  0.32451956  0.65785289  0.99118623  1
  Cr  Cr16  1  0.49096407  0.82429740  0.15812415  1
  Cr  Cr17  1  0.32451956  0.65785289  0.32599464  1
  Cr  Cr18  1  0.65785207  0.99118540  -0.00881377  1
  Cr  Cr19  1  0.82451956  0.15785289  0.15829415  1
  Cr  Cr20  1  0.65711309  0.99044643  0.32526006  1
  Cr  Cr21  1  0.65786074  0.32451171  -0.00881377  1
  Cr  Cr22  1  0.82396274  0.49140838  0.15773478  1
  Cr  Cr23  1  0.65818808  0.32418437  0.32384221  1
  Cr  Cr24  1  0.65785209  0.65786156  -0.00881377  1
  Cr  Cr25  1  0.82507638  0.82429740  0.15773478  1
  Cr  Cr26  1  0.65711219  0.65892719  0.32491929  1
  Cr  Cr27  1  0.15790269  0.15883062  0.49118623  1
  Cr  Cr28  1  0.99085103  -0.00847858  0.65853024  1
  Cr  Cr29  1  0.15807505  0.15729607  0.82463767  1
  Ni  Ni30  1  0.15802080  0.49135414  0.49118623  1
  Cr  Cr31  1  -0.00807398  0.32525936  0.65711239  1
  Cr  Cr32  1  0.15807505  0.49140838  0.82424830  1
  Cr  Cr33  1  0.15887836  0.82349409  0.49118623  1
  Cr  Cr34  1  -0.00807307  0.65677860  0.65745317  1
  Cr  Cr35  1  0.15751807  0.82485438  0.82519740  1
  Cr  Cr36  1  0.49113643  0.15687516  0.49118623  1
  Cr  Cr37  1  0.32559386  0.99044552  0.65745317  1
  Cr  Cr38  1  0.49096407  0.15840971  0.82463767  1
  Cr  Cr39  1  0.49016076  0.49221169  0.49118623  1
  Cr  Cr40  1  0.32344526  0.32526026  0.65745317  1
  Cr  Cr41  1  0.49152105  0.49085140  0.82519740  1
  Ni  Ni42  1  0.49101832  0.82435165  0.49118623  1
  Cr  Cr43  1  0.32451956  0.65785289  0.65637781  1
  Cr  Cr44  1  0.49096407  0.82429740  0.82424830  1
  Cr  Cr45  1  0.82451956  0.15785289  0.49118623  1
  Cr  Cr46  1  0.65711309  0.99044643  0.65711239  1
  Cr  Cr47  1  0.82451956  0.15785289  0.82407830  1
  Cr  Cr48  1  0.82549729  0.49123603  0.49118623  1
  Cr  Cr49  1  0.65818808  0.32418437  0.65853024  1
  Cr  Cr50  1  0.82396274  0.49140838  0.82463767  1
  Cr  Cr51  1  0.82354183  0.82446976  0.49118623  1
  Cr  Cr52  1  0.65711219  0.65892719  0.65745317  1
  Cr  Cr53  1  0.82507638  0.82429740  0.82463767  1
" 