916,Ni97Cr3_0,-200.661711928292, 201.098527417824,Ni97Cr3,"# generated using pymatgen
 data_Cr26Ni
_symmetry_space_group_name_H-M   'P 1'
_cell_length_a   7.60179251
_cell_length_b   7.60179251
_cell_length_c   10.75055806
_cell_angle_alpha   90.00000000
_cell_angle_beta   90.00000000
_cell_angle_gamma   90.00000000
_symmetry_Int_Tables_number   1
_chemical_formula_structural   Cr26Ni
_chemical_formula_sum   'Cr52 Ni2'
_cell_volume   621.24517924
_cell_formula_units_Z   2
loop_
 _symmetry_equiv_pos_site_id
 _symmetry_equiv_pos_as_xyz
  1  'x, y, z'
loop_
 _atom_site_type_symbol
 _atom_site_label
 _atom_site_symmetry_multiplicity
 _atom_site_fract_x
 _atom_site_fract_y
 _atom_site_fract_z
 _atom_site_occupancy
  Cr  Cr0  1  -0.00864132  -0.00806603  -0.00864289  1
  Cr  Cr1  1  0.15673300  0.15854181  0.15673062  1
  Cr  Cr2  1  -0.00881318  0.99075432  0.32480843  1
  Ni  Ni3  1  0.99104530  0.32437863  0.99104319  1
  Cr  Cr4  1  0.15780396  0.49113729  0.15780396  1
  Cr  Cr5  1  -0.00881325  0.32452008  0.32442004  1
  Cr  Cr6  1  0.99080391  0.65678152  0.99079959  1
  Cr  Cr7  1  0.15887492  0.82373278  0.15887731  1
  Cr  Cr8  1  -0.00784026  0.65813734  0.32480834  1
  Cr  Cr9  1  0.32442110  -0.00847974  0.99079949  1
  Cr  Cr10  1  0.49147145  0.15746981  0.15780396  1
  Cr  Cr11  1  0.32424925  0.99034062  0.32425081  1
  Cr  Cr12  1  0.32344819  0.32413725  0.99079959  1
  Cr  Cr13  1  0.49039945  0.49220826  0.15887731  1
  Cr  Cr14  1  0.32480401  0.32549307  0.32480834  1
  Cr  Cr15  1  0.32442117  0.65775451  -0.00881211  1
  Cr  Cr16  1  0.49040152  0.82373485  0.15853631  1
  Ni  Ni17  1  0.32456262  0.65789595  0.32456473  1
  Cr  Cr18  1  0.65763240  0.99096574  -0.00864290  1
  Cr  Cr19  1  0.82520640  0.15853973  0.15707161  1
  Cr  Cr20  1  0.65797552  -0.00869115  0.32425083  1
  Cr  Cr21  1  0.65860064  0.32469201  -0.00864289  1
  Cr  Cr22  1  0.82520848  0.49006633  0.15673062  1
  Cr  Cr23  1  0.65742099  0.32452015  0.32480843  1
  Cr  Cr24  1  0.65818693  0.65775444  0.99079949  1
  Cr  Cr25  1  0.82413647  0.82480478  0.15780396  1
  Cr  Cr26  1  0.65700728  0.65758258  0.32425081  1
  Cr  Cr27  1  0.15746960  0.15780460  0.49147473  1
  Cr  Cr28  1  -0.00864132  0.99058255  0.65724644  1
  Cr  Cr29  1  0.15706089  0.15853886  0.82520402  1
  Cr  Cr30  1  0.15853890  0.49187223  0.49040297  1
  Cr  Cr31  1  -0.00864130  0.32469203  0.65763513  1
  Cr  Cr32  1  0.15706902  0.49040236  0.82520495  1
  Cr  Cr33  1  0.15854703  0.82373573  0.49040390  1
  Cr  Cr34  1  0.99080414  0.65813711  0.65780396  1
  Cr  Cr35  1  0.15813832  0.82446999  0.82413320  1
  Cr  Cr36  1  0.49147080  0.15779543  0.49147470  1
  Cr  Cr37  1  0.32424924  -0.00830796  0.65836148  1
  Cr  Cr38  1  0.49114582  0.15747045  0.82413322  1
  Cr  Cr39  1  0.49040240  0.49188036  0.49040390  1
  Cr  Cr40  1  0.32480378  0.32413748  0.65780396  1
  Cr  Cr41  1  0.49113665  0.49147166  0.82413320  1
  Cr  Cr42  1  0.49040350  0.82373684  0.49040493  1
  Cr  Cr43  1  0.32424923  0.65758256  0.65797279  1
  Cr  Cr44  1  0.49113646  0.82446980  0.82447259  1
  Cr  Cr45  1  0.82447146  0.15780479  0.49113534  1
  Cr  Cr46  1  0.65780396  0.99113729  0.65780396  1
  Cr  Cr47  1  0.82520442  0.15853775  0.82520299  1
  Cr  Cr48  1  0.82447127  0.49080293  0.49147473  1
  Cr  Cr49  1  0.65724922  0.32469201  0.65724644  1
  Cr  Cr50  1  0.82520552  0.49039423  0.82520402  1
  Cr  Cr51  1  0.82446210  0.82480414  0.49147470  1
  Cr  Cr52  1  0.65835870  0.65758258  0.65836148  1
  Cr  Cr53  1  0.82413712  0.82447916  0.82413322  1
" 