910,Ni97Fe3_10,-224.367716230489, 127.685658898461,Ni97Fe3,"# generated using pymatgen
 data_Fe26Ni
_symmetry_space_group_name_H-M   'P 1'
_cell_length_a   7.41299853
_cell_length_b   7.41299853
_cell_length_c   10.48356306
_cell_angle_alpha   90.00000000
_cell_angle_beta   90.00000000
_cell_angle_gamma   90.00000000
_symmetry_Int_Tables_number   1
_chemical_formula_structural   Fe26Ni
_chemical_formula_sum   'Fe52 Ni2'
_cell_volume   576.09849352
_cell_formula_units_Z   2
loop_
 _symmetry_equiv_pos_site_id
 _symmetry_equiv_pos_as_xyz
  1  'x, y, z'
loop_
 _atom_site_type_symbol
 _atom_site_label
 _atom_site_symmetry_multiplicity
 _atom_site_fract_x
 _atom_site_fract_y
 _atom_site_fract_z
 _atom_site_occupancy
  Fe  Fe0  1  1.00363889  0.00365059  1.00364055  1
  Fe  Fe1  1  0.17031223  0.17031223  0.17031553  1
  Fe  Fe2  1  1.00364555  0.00364558  0.33697889  1
  Fe  Fe3  1  1.00363889  0.33697387  1.00364055  1
  Fe  Fe4  1  0.17031223  0.50364553  0.17031219  1
  Fe  Fe5  1  1.00364555  0.33697887  0.33697889  1
  Fe  Fe6  1  0.00364721  0.67031223  0.00364719  1
  Fe  Fe7  1  0.17031223  0.83697892  0.17031219  1
  Fe  Fe8  1  1.00364556  0.67031223  0.33697889  1
  Fe  Fe9  1  0.33698557  0.00365059  1.00364055  1
  Fe  Fe10  1  0.50364389  0.17031223  0.17030101  1
  Fe  Fe11  1  0.33697891  0.00364558  0.33697889  1
  Fe  Fe12  1  0.33698557  0.33697387  1.00364055  1
  Fe  Fe13  1  0.50364557  0.50364722  0.17031386  1
  Fe  Fe14  1  0.33697891  0.33697887  0.33697889  1
  Fe  Fe15  1  0.33697725  0.67031223  0.00364719  1
  Fe  Fe16  1  0.50364557  0.83697724  0.17031386  1
  Fe  Fe17  1  0.33697890  0.67031223  0.33697889  1
  Fe  Fe18  1  0.67031223  0.00365889  1.00363223  1
  Fe  Fe19  1  0.83698057  0.17031223  0.17030101  1
  Fe  Fe20  1  0.67031223  0.00364559  0.33697889  1
  Fe  Fe21  1  0.67031223  0.33696557  1.00363223  1
  Fe  Fe22  1  0.83697888  0.50364722  0.17031386  1
  Fe  Fe23  1  0.67031223  0.33697886  0.33697889  1
  Fe  Fe24  1  0.67031223  0.67031223  0.00364889  1
  Fe  Fe25  1  0.83697888  0.83697724  0.17031386  1
  Fe  Fe26  1  0.67031223  0.67031223  0.33697889  1
  Fe  Fe27  1  0.17031223  0.17031223  0.50364226  1
  Fe  Fe28  1  1.00363889  0.00365059  0.67031724  1
  Fe  Fe29  1  0.17031223  0.17031223  0.83697889  1
  Fe  Fe30  1  0.17031223  0.50364553  0.50364560  1
  Fe  Fe31  1  1.00363889  0.33697387  0.67031724  1
  Fe  Fe32  1  0.17031223  0.50361985  0.83697889  1
  Fe  Fe33  1  0.17031223  0.83697892  0.50364560  1
  Fe  Fe34  1  0.00364721  0.67031223  0.67031060  1
  Fe  Fe35  1  0.17031223  0.83700460  0.83697889  1
  Fe  Fe36  1  0.50364389  0.17031223  0.50365678  1
  Fe  Fe37  1  0.33698557  0.00365059  0.67031724  1
  Ni  Ni38  1  0.50366380  0.17031223  0.83697889  1
  Fe  Fe39  1  0.50364557  0.50364722  0.50364393  1
  Fe  Fe40  1  0.33698557  0.33697387  0.67031724  1
  Fe  Fe41  1  0.50365841  0.50361941  0.83697889  1
  Fe  Fe42  1  0.50364557  0.83697724  0.50364393  1
  Fe  Fe43  1  0.33697725  0.67031223  0.67031060  1
  Fe  Fe44  1  0.50365841  0.83700505  0.83697889  1
  Fe  Fe45  1  0.83698057  0.17031223  0.50365678  1
  Fe  Fe46  1  0.67031223  0.00365889  0.67032556  1
  Ni  Ni47  1  0.83696066  0.17031223  0.83697889  1
  Fe  Fe48  1  0.83697888  0.50364722  0.50364393  1
  Fe  Fe49  1  0.67031223  0.33696557  0.67032556  1
  Fe  Fe50  1  0.83696605  0.50361941  0.83697889  1
  Fe  Fe51  1  0.83697888  0.83697724  0.50364393  1
  Fe  Fe52  1  0.67031223  0.67031223  0.67030890  1
  Fe  Fe53  1  0.83696605  0.83700505  0.83697889  1
" 