5878,Ni97Fe2Cr0_0,-239.852743372738, 180.417088308276,Ni97Fe2Cr0,"# generated using pymatgen
 data_CrFeNi52
_symmetry_space_group_name_H-M   'P 1'
_cell_length_a   7.46235066
_cell_length_b   7.46235066
_cell_length_c   10.55335750
_cell_angle_alpha   90.00000000
_cell_angle_beta   90.00000000
_cell_angle_gamma   90.00000000
_symmetry_Int_Tables_number   1
_chemical_formula_structural   CrFeNi52
_chemical_formula_sum   'Cr1 Fe1 Ni52'
_cell_volume   587.68141379
_cell_formula_units_Z   1
loop_
 _symmetry_equiv_pos_site_id
 _symmetry_equiv_pos_as_xyz
  1  'x, y, z'
loop_
 _atom_site_type_symbol
 _atom_site_label
 _atom_site_symmetry_multiplicity
 _atom_site_fract_x
 _atom_site_fract_y
 _atom_site_fract_z
 _atom_site_occupancy
  Ni  Ni0  1  0.00069251  0.00069251  0.00112932  1
  Ni  Ni1  1  0.16695513  0.16695513  0.16689651  1
  Ni  Ni2  1  1.00009687  1.00009687  0.33342066  1
  Ni  Ni3  1  0.99964924  0.33410127  1.00008728  1
  Ni  Ni4  1  0.16695006  0.50032202  0.16696462  1
  Ni  Ni5  1  1.00007261  0.33386768  0.33342025  1
  Ni  Ni6  1  0.00181263  0.66614752  0.00112879  1
  Ni  Ni7  1  0.16677395  0.83366676  0.16677737  1
  Ni  Ni8  1  0.00034572  0.66697973  0.33367171  1
  Ni  Ni9  1  0.33410127  0.99964924  1.00008728  1
  Ni  Ni10  1  0.50032202  0.16695006  0.16696462  1
  Ni  Ni11  1  0.33386768  1.00007261  0.33342025  1
  Ni  Ni12  1  0.33409828  0.33409828  0.00032302  1
  Ni  Ni13  1  0.50024329  0.50024329  0.16702494  1
  Ni  Ni14  1  0.33386805  0.33386805  0.33341989  1
  Ni  Ni15  1  0.33299094  0.66719442  1.00008706  1
  Ni  Ni16  1  0.50042038  0.83374616  0.16683887  1
  Ni  Ni17  1  0.33361654  0.66700364  0.33367381  1
  Ni  Ni18  1  0.66614752  0.00181263  0.00112879  1
  Ni  Ni19  1  0.83366676  0.16677395  0.16677737  1
  Ni  Ni20  1  0.66697973  0.00034572  0.33367171  1
  Ni  Ni21  1  0.66719442  0.33299094  1.00008706  1
  Ni  Ni22  1  0.83374616  0.50042038  0.16683887  1
  Ni  Ni23  1  0.66700364  0.33361654  0.33367381  1
  Fe  Fe24  1  0.66610241  0.66610241  0.00117937  1
  Ni  Ni25  1  0.83374719  0.83374719  0.16721709  1
  Ni  Ni26  1  0.66697946  0.66697946  0.33317987  1
  Ni  Ni27  1  0.16695520  0.16695520  0.50036055  1
  Ni  Ni28  1  0.00093342  0.00093342  0.66639063  1
  Ni  Ni29  1  0.16711919  0.16711919  0.83368660  1
  Ni  Ni30  1  0.16695502  0.50032415  0.50036073  1
  Ni  Ni31  1  0.99988181  0.33386724  0.66743696  1
  Ni  Ni32  1  0.16711374  0.50015969  0.83362070  1
  Ni  Ni33  1  0.16677663  0.83366503  0.50054814  1
  Ni  Ni34  1  0.00117263  0.66614527  0.66614890  1
  Ni  Ni35  1  0.16866681  0.83366407  0.83362180  1
  Ni  Ni36  1  0.50032415  0.16695502  0.50036073  1
  Ni  Ni37  1  0.33386724  0.99988181  0.66743696  1
  Ni  Ni38  1  0.50015969  0.16711374  0.83362070  1
  Ni  Ni39  1  0.50036169  0.50036169  0.50036062  1
  Ni  Ni40  1  0.33386736  0.33386736  0.66720095  1
  Ni  Ni41  1  0.50007736  0.50007736  0.83355704  1
  Ni  Ni42  1  0.50053958  0.83362756  0.50054753  1
  Ni  Ni43  1  0.33361927  0.66719475  0.66718704  1
  Ni  Ni44  1  0.49851816  0.83375018  0.83355402  1
  Ni  Ni45  1  0.83366503  0.16677663  0.50054814  1
  Ni  Ni46  1  0.66614527  0.00117263  0.66614890  1
  Ni  Ni47  1  0.83366407  0.16866681  0.83362180  1
  Ni  Ni48  1  0.83362756  0.50053958  0.50054753  1
  Ni  Ni49  1  0.66719475  0.33361927  0.66718704  1
  Ni  Ni50  1  0.83375018  0.49851816  0.83355402  1
  Ni  Ni51  1  0.83362764  0.83362764  0.50017040  1
  Ni  Ni52  1  0.66614691  0.66614691  0.66664164  1
  Cr  Cr53  1  0.83381952  0.83381952  0.83348409  1
" 