840,Ni97Fe3_17,-224.384345526365, 127.452318686517,Ni97Fe3,"# generated using pymatgen
 data_Fe26Ni
_symmetry_space_group_name_H-M   'P 1'
_cell_length_a   7.41318390
_cell_length_b   7.41318390
_cell_length_c   10.48382521
_cell_angle_alpha   90.00000000
_cell_angle_beta   90.00000000
_cell_angle_gamma   90.00000000
_symmetry_Int_Tables_number   1
_chemical_formula_structural   Fe26Ni
_chemical_formula_sum   'Fe52 Ni2'
_cell_volume   576.14171285
_cell_formula_units_Z   2
loop_
 _symmetry_equiv_pos_site_id
 _symmetry_equiv_pos_as_xyz
  1  'x, y, z'
loop_
 _atom_site_type_symbol
 _atom_site_label
 _atom_site_symmetry_multiplicity
 _atom_site_fract_x
 _atom_site_fract_y
 _atom_site_fract_z
 _atom_site_occupancy
  Fe  Fe0  1  1.00363296  0.00363398  0.00363396  1
  Fe  Fe1  1  0.17029962  0.17029964  0.17029965  1
  Fe  Fe2  1  0.00363396  0.00363398  0.33696430  1
  Fe  Fe3  1  1.00363296  0.33696530  0.00363396  1
  Fe  Fe4  1  0.17030064  0.50363298  0.17029864  1
  Fe  Fe5  1  1.00362869  0.33696957  0.33696959  1
  Fe  Fe6  1  1.00363296  0.67029963  1.00362492  1
  Fe  Fe7  1  0.17029962  0.83696628  0.17029965  1
  Fe  Fe8  1  1.00362869  0.67029536  0.33697862  1
  Fe  Fe9  1  0.33696629  1.00363296  1.00363296  1
  Fe  Fe10  1  0.50363298  0.17029964  0.17029965  1
  Fe  Fe11  1  0.33696629  1.00363296  0.33696633  1
  Fe  Fe12  1  0.33696629  0.33696631  1.00363296  1
  Fe  Fe13  1  0.50363196  0.50363297  0.17029864  1
  Fe  Fe14  1  0.33696629  0.33696532  0.33696531  1
  Fe  Fe15  1  0.33696731  0.67029963  0.00363396  1
  Fe  Fe16  1  0.50363298  0.83696629  0.17029965  1
  Fe  Fe17  1  0.33696731  0.67030063  0.33696430  1
  Fe  Fe18  1  0.67029965  1.00363296  1.00363296  1
  Fe  Fe19  1  0.83696630  0.17029862  0.17029864  1
  Fe  Fe20  1  0.67029865  1.00363296  0.33696531  1
  Fe  Fe21  1  0.67029965  0.33696632  1.00363296  1
  Fe  Fe22  1  0.83696631  0.50363298  0.17030768  1
  Fe  Fe23  1  0.67030392  0.33697059  0.33697059  1
  Fe  Fe24  1  0.67029863  0.67029963  0.00363396  1
  Fe  Fe25  1  0.83696631  0.83696730  0.17029864  1
  Fe  Fe26  1  0.67030290  0.67029535  0.33696959  1
  Fe  Fe27  1  0.17029259  0.17030767  0.50363196  1
  Fe  Fe28  1  0.00363396  1.00362442  0.67030064  1
  Fe  Fe29  1  0.17030062  0.17029964  0.83696729  1
  Fe  Fe30  1  0.17028681  0.50363725  0.50363725  1
  Fe  Fe31  1  1.00362869  0.33697913  0.67029535  1
  Fe  Fe32  1  0.17029637  0.50363725  0.83696301  1
  Fe  Fe33  1  0.17028732  0.83695399  0.50363725  1
  Ni  Ni34  1  1.00363126  0.67029793  0.67029793  1
  Fe  Fe35  1  0.17029535  0.83696201  0.83696201  1
  Fe  Fe36  1  0.50364100  0.17030767  0.50363298  1
  Fe  Fe37  1  0.33695827  1.00362493  0.67029962  1
  Fe  Fe38  1  0.50363297  0.17029964  0.83696627  1
  Fe  Fe39  1  0.50364151  0.50363198  0.50363196  1
  Fe  Fe40  1  0.33695827  0.33697334  0.67030064  1
  Fe  Fe41  1  0.50363196  0.50363198  0.83696830  1
  Fe  Fe42  1  0.50364100  0.83695926  0.50363196  1
  Fe  Fe43  1  0.33695775  0.67030063  0.67030064  1
  Fe  Fe44  1  0.50363297  0.83696728  0.83696729  1
  Fe  Fe45  1  0.83696531  0.17030818  0.50363196  1
  Fe  Fe46  1  0.67030668  1.00362493  0.67030064  1
  Fe  Fe47  1  0.83696531  0.17029862  0.83696830  1
  Ni  Ni48  1  0.83696800  0.50363467  0.50363468  1
  Fe  Fe49  1  0.67031194  0.33697861  0.67029535  1
  Fe  Fe50  1  0.83697058  0.50363725  0.83695398  1
  Fe  Fe51  1  0.83697058  0.83695347  0.50363725  1
  Fe  Fe52  1  0.67031246  0.67029535  0.67029535  1
  Fe  Fe53  1  0.83697058  0.83696303  0.83696301  1
" 