5157,Ni97Fe3_19,-224.297007446557, 127.926136338694,Ni97Fe3,"# generated using pymatgen
 data_Fe26Ni
_symmetry_space_group_name_H-M   'P 1'
_cell_length_a   7.41292002
_cell_length_b   7.41292002
_cell_length_c   10.48345203
_cell_angle_alpha   90.00000000
_cell_angle_beta   90.00000000
_cell_angle_gamma   90.00000000
_symmetry_Int_Tables_number   1
_chemical_formula_structural   Fe26Ni
_chemical_formula_sum   'Fe52 Ni2'
_cell_volume   576.08018992
_cell_formula_units_Z   2
loop_
 _symmetry_equiv_pos_site_id
 _symmetry_equiv_pos_as_xyz
  1  'x, y, z'
loop_
 _atom_site_type_symbol
 _atom_site_label
 _atom_site_symmetry_multiplicity
 _atom_site_fract_x
 _atom_site_fract_y
 _atom_site_fract_z
 _atom_site_occupancy
  Fe  Fe0  1  0.00365090  1.00365004  1.00364471  1
  Fe  Fe1  1  0.17031668  0.17031756  0.17031842  1
  Fe  Fe2  1  0.00365090  0.00365090  0.33699128  1
  Fe  Fe3  1  0.00365090  0.33698597  0.00365263  1
  Fe  Fe4  1  0.17031756  0.50365089  0.17031755  1
  Fe  Fe5  1  0.00365090  0.33698510  0.33698337  1
  Fe  Fe6  1  0.00365090  0.67031668  0.00365174  1
  Fe  Fe7  1  0.17031756  0.83698424  0.17031755  1
  Fe  Fe8  1  0.00365090  0.67031668  0.33698337  1
  Fe  Fe9  1  0.33698888  0.00365467  1.00364798  1
  Fe  Fe10  1  0.50365090  0.17031756  0.17031051  1
  Fe  Fe11  1  0.33698511  0.00365090  0.33698337  1
  Fe  Fe12  1  0.33698800  0.33698045  1.00364711  1
  Fe  Fe13  1  0.50365090  0.50365177  0.17031842  1
  Fe  Fe14  1  0.33698423  0.33698422  0.33698424  1
  Fe  Fe15  1  0.33698336  0.67031757  0.00365176  1
  Fe  Fe16  1  0.50365090  0.83698335  0.17031842  1
  Fe  Fe17  1  0.33698423  0.67031757  0.33698424  1
  Fe  Fe18  1  0.67031291  0.00365467  1.00364798  1
  Fe  Fe19  1  0.83698511  0.17031756  0.17031842  1
  Fe  Fe20  1  0.67031668  0.00365090  0.33698337  1
  Fe  Fe21  1  0.67031379  0.33698045  1.00364711  1
  Fe  Fe22  1  0.83698423  0.50365089  0.17031755  1
  Fe  Fe23  1  0.67031756  0.33698422  0.33698424  1
  Fe  Fe24  1  0.67031843  0.67031757  0.00365176  1
  Fe  Fe25  1  0.83698423  0.83698424  0.17031755  1
  Fe  Fe26  1  0.67031756  0.67031757  0.33698424  1
  Fe  Fe27  1  0.17031291  0.17031379  0.50365381  1
  Ni  Ni28  1  0.00365090  0.00365168  0.67031833  1
  Fe  Fe29  1  0.17032133  0.17031379  0.83698045  1
  Fe  Fe30  1  0.17031843  0.50365089  0.50365003  1
  Fe  Fe31  1  0.00365090  0.33697755  0.67031669  1
  Fe  Fe32  1  0.17032547  0.50364385  0.83698510  1
  Fe  Fe33  1  0.17031379  0.83698801  0.50365468  1
  Fe  Fe34  1  0.00365090  0.67032510  0.67031757  1
  Fe  Fe35  1  0.17032084  0.83699505  0.83698045  1
  Fe  Fe36  1  0.50365090  0.17031842  0.50365708  1
  Fe  Fe37  1  0.33698046  0.00365467  0.67032134  1
  Ni  Ni38  1  0.50365090  0.17031678  0.83698346  1
  Fe  Fe39  1  0.50365090  0.50365177  0.50365005  1
  Fe  Fe40  1  0.33698095  0.33697341  0.67032134  1
  Fe  Fe41  1  0.50365090  0.50364336  0.83698422  1
  Fe  Fe42  1  0.50365090  0.83698249  0.50364916  1
  Fe  Fe43  1  0.33697632  0.67032461  0.67031669  1
  Fe  Fe44  1  0.50365090  0.83699090  0.83698510  1
  Fe  Fe45  1  0.83698888  0.17031379  0.50365381  1
  Fe  Fe46  1  0.67032133  0.00365467  0.67032134  1
  Fe  Fe47  1  0.83698046  0.17031379  0.83698045  1
  Fe  Fe48  1  0.83698336  0.50365089  0.50365003  1
  Fe  Fe49  1  0.67032084  0.33697341  0.67032134  1
  Fe  Fe50  1  0.83697632  0.50364385  0.83698510  1
  Fe  Fe51  1  0.83698800  0.83698801  0.50365468  1
  Fe  Fe52  1  0.67032547  0.67032461  0.67031669  1
  Fe  Fe53  1  0.83698095  0.83699505  0.83698045  1
" 