7661,Ni97Fe3_8,-224.392555864242, 128.048236117028,Ni97Fe3,"# generated using pymatgen
 data_Fe26Ni
_symmetry_space_group_name_H-M   'P 1'
_cell_length_a   7.41507152
_cell_length_b   7.41507152
_cell_length_c   10.48649471
_cell_angle_alpha   90.00000000
_cell_angle_beta   90.00000000
_cell_angle_gamma   90.00000000
_symmetry_Int_Tables_number   1
_chemical_formula_structural   Fe26Ni
_chemical_formula_sum   'Fe52 Ni2'
_cell_volume   576.58193492
_cell_formula_units_Z   2
loop_
 _symmetry_equiv_pos_site_id
 _symmetry_equiv_pos_as_xyz
  1  'x, y, z'
loop_
 _atom_site_type_symbol
 _atom_site_label
 _atom_site_symmetry_multiplicity
 _atom_site_fract_x
 _atom_site_fract_y
 _atom_site_fract_z
 _atom_site_occupancy
  Fe  Fe0  1  0.00389140  1.00301358  1.00322548  1
  Fe  Fe1  1  0.17006557  0.17027728  0.17038338  1
  Fe  Fe2  1  0.00350931  1.00349880  0.33683809  1
  Fe  Fe3  1  1.00340012  0.33694273  0.00371798  1
  Fe  Fe4  1  0.17017407  0.50339619  0.17027556  1
  Fe  Fe5  1  1.00350337  0.33683948  0.33683809  1
  Fe  Fe6  1  0.00388554  0.67055220  1.00311529  1
  Fe  Fe7  1  0.17017383  0.83684050  0.16938289  1
  Fe  Fe8  1  0.00350933  0.67017599  0.33683809  1
  Fe  Fe9  1  0.33683809  0.00350476  1.00272251  1
  Fe  Fe10  1  0.50350235  0.17016902  0.16938289  1
  Fe  Fe11  1  0.33683809  0.00350476  0.33683809  1
  Fe  Fe12  1  0.33732927  0.33645145  1.00322548  1
  Fe  Fe13  1  0.50350212  0.50361333  0.17027556  1
  Fe  Fe14  1  0.33684405  0.33683354  0.33683809  1
  Fe  Fe15  1  0.33634691  0.67055807  1.00322548  1
  Fe  Fe16  1  0.50361061  0.83673224  0.17038338  1
  Fe  Fe17  1  0.33683214  0.67017598  0.33683809  1
  Fe  Fe18  1  0.66978479  0.00399594  1.00322548  1
  Fe  Fe19  1  0.83694666  0.17016879  0.17027556  1
  Fe  Fe20  1  0.67016687  0.00351071  0.33683809  1
  Fe  Fe21  1  0.66979065  0.33645731  1.00311529  1
  Fe  Fe22  1  0.83683809  0.50350476  0.17016748  1
  Fe  Fe23  1  0.67016686  0.33683353  0.33683809  1
  Fe  Fe24  1  0.67027607  0.67006679  0.00371798  1
  Fe  Fe25  1  0.83672952  0.83684073  0.17027556  1
  Fe  Fe26  1  0.67017282  0.67017004  0.33683809  1
  Fe  Fe27  1  0.17006557  0.17027728  0.50329280  1
  Fe  Fe28  1  0.00389140  1.00301358  0.67045071  1
  Fe  Fe29  1  0.17094835  0.16939451  0.83683809  1
  Fe  Fe30  1  0.17017407  0.50339619  0.50340062  1
  Fe  Fe31  1  1.00340012  0.33694273  0.66995820  1
  Fe  Fe32  1  0.17095406  0.50348007  0.83683809  1
  Fe  Fe33  1  0.17017383  0.83684050  0.50429330  1
  Fe  Fe34  1  0.00388554  0.67055220  0.67056090  1
  Ni  Ni35  1  0.16943194  0.83609861  0.83683809  1
  Fe  Fe36  1  0.50350235  0.17016902  0.50429330  1
  Fe  Fe37  1  0.33683809  0.00350476  0.67095368  1
  Ni  Ni38  1  0.50424425  0.17091091  0.83683809  1
  Fe  Fe39  1  0.50350212  0.50361333  0.50340062  1
  Fe  Fe40  1  0.33732927  0.33645145  0.67045071  1
  Fe  Fe41  1  0.50272212  0.50352945  0.83683809  1
  Fe  Fe42  1  0.50361061  0.83673224  0.50329280  1
  Fe  Fe43  1  0.33634691  0.67055807  0.67045071  1
  Fe  Fe44  1  0.50272784  0.83761501  0.83683809  1
  Fe  Fe45  1  0.83694666  0.17016879  0.50340062  1
  Fe  Fe46  1  0.66978479  0.00399594  0.67045071  1
  Fe  Fe47  1  0.83686278  0.16938879  0.83683809  1
  Fe  Fe48  1  0.83683809  0.50350476  0.50350870  1
  Fe  Fe49  1  0.66979065  0.33645731  0.67056090  1
  Fe  Fe50  1  0.83683809  0.50350476  0.83683809  1
  Fe  Fe51  1  0.83672952  0.83684073  0.50340062  1
  Fe  Fe52  1  0.67027607  0.67006679  0.66995820  1
  Fe  Fe53  1  0.83681340  0.83762073  0.83683809  1
" 