7536,Ni97Cr3_8,-200.695926384685, 201.664001720043,Ni97Cr3,"# generated using pymatgen
 data_Cr26Ni
_symmetry_space_group_name_H-M   'P 1'
_cell_length_a   7.60092809
_cell_length_b   7.60092809
_cell_length_c   10.74933559
_cell_angle_alpha   90.00000000
_cell_angle_beta   90.00000000
_cell_angle_gamma   90.00000000
_symmetry_Int_Tables_number   1
_chemical_formula_structural   Cr26Ni
_chemical_formula_sum   'Cr52 Ni2'
_cell_volume   621.03327325
_cell_formula_units_Z   2
loop_
 _symmetry_equiv_pos_site_id
 _symmetry_equiv_pos_as_xyz
  1  'x, y, z'
loop_
 _atom_site_type_symbol
 _atom_site_label
 _atom_site_symmetry_multiplicity
 _atom_site_fract_x
 _atom_site_fract_y
 _atom_site_fract_z
 _atom_site_occupancy
  Cr  Cr0  1  -0.00875746  -0.00852412  -0.00847046  1
  Cr  Cr1  1  0.15753570  0.15785982  0.15819590  1
  Cr  Cr2  1  -0.00858595  -0.00869565  0.32397079  1
  Cr  Cr3  1  -0.00875746  0.32424375  -0.00847046  1
  Cr  Cr4  1  0.15859438  0.49192931  0.15712601  1
  Cr  Cr5  1  -0.00858595  0.32441528  0.32397079  1
  Cr  Cr6  1  -0.00778812  0.65785982  0.99114273  1
  Cr  Cr7  1  0.15859438  0.82379032  0.15712601  1
  Cr  Cr8  1  0.99086102  0.65785982  0.32491286  1
  Cr  Cr9  1  0.32430561  0.98995212  0.99097388  1
  Cr  Cr10  1  0.49152545  0.15785982  0.15819593  1
  Cr  Cr11  1  0.32430558  -0.00869565  0.32508217  1
  Cr  Cr12  1  0.32430561  0.32576751  0.99097388  1
  Cr  Cr13  1  0.49045716  0.49192102  0.15712527  1
  Cr  Cr14  1  0.32430558  0.32441528  0.32508217  1
  Ni  Ni15  1  0.32465185  0.65785982  -0.00867542  1
  Cr  Cr16  1  0.49045716  0.82379862  0.15712527  1
  Cr  Cr17  1  0.32485861  0.65785982  0.32414010  1
  Cr  Cr18  1  0.65803154  0.99092318  0.99097382  1
  Cr  Cr19  1  0.82451828  0.15785982  0.15785788  1
  Cr  Cr20  1  0.65785982  0.99075138  0.32452648  1
  Cr  Cr21  1  0.65803154  0.32479645  0.99097382  1
  Cr  Cr22  1  0.82452721  0.49086170  0.15819587  1
  Cr  Cr23  1  0.65785982  0.32496825  0.32452648  1
  Cr  Cr24  1  0.65650587  0.65785982  -0.00847019  1
  Cr  Cr25  1  0.82452721  0.82485793  0.15819587  1
  Cr  Cr26  1  0.65785982  0.65785982  0.32452648  1
  Cr  Cr27  1  0.15818394  0.15785982  0.49085707  1
  Cr  Cr28  1  -0.00858598  0.98995212  0.65807909  1
  Cr  Cr29  1  0.15785982  0.15785982  0.82452648  1
  Cr  Cr30  1  0.15712525  0.49192931  0.49192696  1
  Cr  Cr31  1  -0.00858598  0.32576751  0.65807909  1
  Cr  Cr32  1  0.15785982  0.49265958  0.82452648  1
  Cr  Cr33  1  0.15712525  0.82379032  0.49192696  1
  Ni  Ni34  1  0.99106779  0.65785982  0.65772838  1
  Cr  Cr35  1  0.15785982  0.82306005  0.82452648  1
  Cr  Cr36  1  0.49120135  0.15785982  0.49119509  1
  Cr  Cr37  1  0.32447709  -0.00852412  0.65752343  1
  Cr  Cr38  1  0.49152537  0.15785982  0.82418838  1
  Cr  Cr39  1  0.49119242  0.49086170  0.49085709  1
  Cr  Cr40  1  0.32447709  0.32424375  0.65752343  1
  Cr  Cr41  1  0.49045757  0.49159559  0.82559608  1
  Cr  Cr42  1  0.49119242  0.82485793  0.49085709  1
  Cr  Cr43  1  0.32350775  0.65785982  0.65791024  1
  Cr  Cr44  1  0.49045757  0.82412405  0.82559608  1
  Cr  Cr45  1  0.82419418  0.15785982  0.49085704  1
  Cr  Cr46  1  0.65768809  0.99092318  0.65807915  1
  Cr  Cr47  1  0.82419426  0.15785982  0.82486459  1
  Cr  Cr48  1  0.82526247  0.49192102  0.49192769  1
  Cr  Cr49  1  0.65768809  0.32479645  0.65807915  1
  Cr  Cr50  1  0.82526206  0.49159559  0.82345688  1
  Cr  Cr51  1  0.82526247  0.82379862  0.49192769  1
  Cr  Cr52  1  0.65921376  0.65785982  0.65752315  1
  Cr  Cr53  1  0.82526206  0.82412405  0.82345688  1
" 