5043,Ni97Fe2Cr0_9,-239.847297676095, 180.30961097943,Ni97Fe2Cr0,"# generated using pymatgen
 data_CrFeNi52
_symmetry_space_group_name_H-M   'P 1'
_cell_length_a   7.46078278
_cell_length_b   7.46078278
_cell_length_c   10.55114020
_cell_angle_alpha   90.00000000
_cell_angle_beta   90.00000000
_cell_angle_gamma   90.00000000
_symmetry_Int_Tables_number   1
_chemical_formula_structural   CrFeNi52
_chemical_formula_sum   'Cr1 Fe1 Ni52'
_cell_volume   587.31106876
_cell_formula_units_Z   1
loop_
 _symmetry_equiv_pos_site_id
 _symmetry_equiv_pos_as_xyz
  1  'x, y, z'
loop_
 _atom_site_type_symbol
 _atom_site_label
 _atom_site_symmetry_multiplicity
 _atom_site_fract_x
 _atom_site_fract_y
 _atom_site_fract_z
 _atom_site_occupancy
  Ni  Ni0  1  0.00253845  0.99990860  0.00041985  1
  Ni  Ni1  1  0.16707270  0.16700796  0.16698516  1
  Ni  Ni2  1  0.00063597  1.00018007  0.33326097  1
  Ni  Ni3  1  0.00111289  0.33444623  1.00041985  1
  Ni  Ni4  1  0.16698658  0.50031991  0.16719613  1
  Ni  Ni5  1  0.00080004  0.33413338  0.33348301  1
  Ni  Ni6  1  0.99978886  0.66692263  0.00041985  1
  Ni  Ni7  1  0.16700508  0.83391299  0.16694680  1
  Ni  Ni8  1  0.00049498  0.66694511  0.33381459  1
  Ni  Ni9  1  0.33223370  0.00115921  0.00041985  1
  Ni  Ni10  1  0.49942496  0.16805575  0.16802953  1
  Ni  Ni11  1  0.33377588  0.00048565  0.33359179  1
  Ni  Ni12  1  0.33358929  0.33312219  0.00041985  1
  Ni  Ni13  1  0.50057965  0.50033841  0.16694680  1
  Ni  Ni14  1  0.33361177  0.33382831  0.33381459  1
  Fe  Fe15  1  0.33338154  0.66671487  0.00041985  1
  Ni  Ni16  1  0.49950633  0.83283967  0.16795988  1
  Ni  Ni17  1  0.33360697  0.66694030  0.33314643  1
  Cr  Cr18  1  0.66679158  1.00012491  0.00041985  1
  Ni  Ni19  1  0.83478188  0.16811522  0.16776123  1
  Ni  Ni20  1  0.66684893  1.00018227  0.33367758  1
  Ni  Ni21  1  0.66657526  0.33587179  0.00041985  1
  Ni  Ni22  1  0.83367462  0.50040603  0.16698516  1
  Ni  Ni23  1  0.66684673  0.33396930  0.33326097  1
  Ni  Ni24  1  0.66782588  0.66556703  0.00041985  1
  Ni  Ni25  1  0.83472242  0.83275829  0.16802953  1
  Ni  Ni26  1  0.66715232  0.66710921  0.33359179  1
  Ni  Ni27  1  0.16697554  0.16694701  0.50041985  1
  Ni  Ni28  1  0.00063597  1.00018007  0.66757873  1
  Ni  Ni29  1  0.16707270  0.16700796  0.83385454  1
  Ni  Ni30  1  0.16720842  0.50054176  0.50041985  1
  Ni  Ni31  1  0.00080004  0.33413338  0.66735669  1
  Ni  Ni32  1  0.16698658  0.50031991  0.83364357  1
  Ni  Ni33  1  0.16720863  0.83377074  0.50041985  1
  Ni  Ni34  1  0.00049498  0.66694511  0.66702511  1
  Ni  Ni35  1  0.16700508  0.83391299  0.83389290  1
  Ni  Ni36  1  0.50051653  0.16710093  0.50041985  1
  Ni  Ni37  1  0.33377588  0.00048565  0.66724791  1
  Ni  Ni38  1  0.49942496  0.16805575  0.83281017  1
  Ni  Ni39  1  0.50043741  0.50054196  0.50041985  1
  Ni  Ni40  1  0.33361177  0.33382831  0.66702511  1
  Ni  Ni41  1  0.50057965  0.50033841  0.83389290  1
  Ni  Ni42  1  0.50028353  0.83361686  0.50041985  1
  Ni  Ni43  1  0.33360697  0.66694030  0.66769327  1
  Ni  Ni44  1  0.49950633  0.83283967  0.83287982  1
  Ni  Ni45  1  0.83376750  0.16710083  0.50041985  1
  Ni  Ni46  1  0.66684893  1.00018227  0.66716213  1
  Ni  Ni47  1  0.83478188  0.16811522  0.83307847  1
  Ni  Ni48  1  0.83361368  0.50030888  0.50041985  1
  Ni  Ni49  1  0.66684673  0.33396930  0.66757873  1
  Ni  Ni50  1  0.83367462  0.50040603  0.83385454  1
  Ni  Ni51  1  0.83376760  0.83384987  0.50041985  1
  Ni  Ni52  1  0.66715232  0.66710921  0.66724791  1
  Ni  Ni53  1  0.83472242  0.83275829  0.83281017  1
" 