8805,Ni97Fe2Cr0_7,-239.841623209367, 180.327182203074,Ni97Fe2Cr0,"# generated using pymatgen
 data_CrFeNi52
_symmetry_space_group_name_H-M   'P 1'
_cell_length_a   7.46083309
_cell_length_b   7.46083309
_cell_length_c   10.55121135
_cell_angle_alpha   90.00000000
_cell_angle_beta   90.00000000
_cell_angle_gamma   90.00000000
_symmetry_Int_Tables_number   1
_chemical_formula_structural   CrFeNi52
_chemical_formula_sum   'Cr1 Fe1 Ni52'
_cell_volume   587.32294967
_cell_formula_units_Z   1
loop_
 _symmetry_equiv_pos_site_id
 _symmetry_equiv_pos_as_xyz
  1  'x, y, z'
loop_
 _atom_site_type_symbol
 _atom_site_label
 _atom_site_symmetry_multiplicity
 _atom_site_fract_x
 _atom_site_fract_y
 _atom_site_fract_z
 _atom_site_occupancy
  Ni  Ni0  1  0.00050061  1.00041008  1.00022952  1
  Ni  Ni1  1  0.16796054  0.16708314  0.16687250  1
  Ni  Ni2  1  0.00053985  0.00045080  0.33381895  1
  Ni  Ni3  1  0.00050061  0.33375620  1.00022952  1
  Ni  Ni4  1  0.16637125  0.50003143  0.16710843  1
  Ni  Ni5  1  0.00053985  0.33371548  0.33381895  1
  Ni  Ni6  1  0.00042887  0.66708314  1.00040550  1
  Ni  Ni7  1  0.16637125  0.83413485  0.16710843  1
  Ni  Ni8  1  0.00042567  0.66708314  0.33382166  1
  Ni  Ni9  1  0.33273317  0.99935379  0.00124221  1
  Ni  Ni10  1  0.49966611  0.16708314  0.16731770  1
  Ni  Ni11  1  0.33372691  1.00039002  0.33382240  1
  Ni  Ni12  1  0.33273317  0.33481250  0.00124221  1
  Ni  Ni13  1  0.50095860  0.49987265  0.16687771  1
  Ni  Ni14  1  0.33372691  0.33377627  0.33382240  1
  Ni  Ni15  1  0.33381558  0.66708314  0.00050506  1
  Ni  Ni16  1  0.50095860  0.83429364  0.16687771  1
  Ni  Ni17  1  0.33390784  0.66708314  0.33349025  1
  Ni  Ni18  1  0.66807093  0.99936684  0.00131754  1
  Fe  Fe19  1  0.83393922  0.16708314  0.16718163  1
  Ni  Ni20  1  0.66700283  1.00030340  0.33379189  1
  Ni  Ni21  1  0.66807093  0.33479944  0.00131754  1
  Ni  Ni22  1  0.83390930  0.50138136  0.16710384  1
  Ni  Ni23  1  0.66700283  0.33386289  0.33379189  1
  Ni  Ni24  1  0.66700826  0.66708314  1.00017491  1
  Ni  Ni25  1  0.83390930  0.83278493  0.16710384  1
  Ni  Ni26  1  0.66691496  0.66708314  0.33382328  1
  Ni  Ni27  1  0.16715276  0.16708314  0.50066496  1
  Ni  Ni28  1  1.00028833  0.00062394  0.66725748  1
  Ni  Ni29  1  0.16551192  0.16708314  0.83368783  1
  Ni  Ni30  1  0.16666815  0.50033426  0.50008689  1
  Ni  Ni31  1  1.00028833  0.33354235  0.66725748  1
  Ni  Ni32  1  0.16665385  0.50034587  0.83405312  1
  Ni  Ni33  1  0.16666815  0.83383203  0.50008689  1
  Ni  Ni34  1  0.00054174  0.66708314  0.66701891  1
  Ni  Ni35  1  0.16665385  0.83382041  0.83405312  1
  Ni  Ni36  1  0.50034481  0.16708314  0.50023707  1
  Ni  Ni37  1  0.33265737  0.99919693  0.66613033  1
  Cr  Cr38  1  0.50001232  0.16708314  0.83339648  1
  Ni  Ni39  1  0.50066458  0.50016136  0.50032407  1
  Ni  Ni40  1  0.33265737  0.33496936  0.66613033  1
  Ni  Ni41  1  0.50066640  0.50177008  0.83405354  1
  Ni  Ni42  1  0.50066458  0.83400493  0.50032407  1
  Ni  Ni43  1  0.33381993  0.66708314  0.66725810  1
  Ni  Ni44  1  0.50066640  0.83239621  0.83405354  1
  Ni  Ni45  1  0.83375067  0.16708314  0.49994623  1
  Ni  Ni46  1  0.66829039  0.99948547  0.66615541  1
  Ni  Ni47  1  0.83529727  0.16708314  0.83441776  1
  Ni  Ni48  1  0.83391577  0.50064923  0.50043104  1
  Ni  Ni49  1  0.66829039  0.33468081  0.66615541  1
  Ni  Ni50  1  0.83393309  0.50067163  0.83370302  1
  Ni  Ni51  1  0.83391577  0.83351705  0.50043104  1
  Ni  Ni52  1  0.66688845  0.66708314  0.66725513  1
  Ni  Ni53  1  0.83393309  0.83349466  0.83370302  1
" 