8828,Ni97Fe2Cr0_18,-239.841623209368, 180.327182195744,Ni97Fe2Cr0,"# generated using pymatgen
 data_CrFeNi52
_symmetry_space_group_name_H-M   'P 1'
_cell_length_a   7.46083309
_cell_length_b   7.46083309
_cell_length_c   10.55121135
_cell_angle_alpha   90.00000000
_cell_angle_beta   90.00000000
_cell_angle_gamma   90.00000000
_symmetry_Int_Tables_number   1
_chemical_formula_structural   CrFeNi52
_chemical_formula_sum   'Cr1 Fe1 Ni52'
_cell_volume   587.32294967
_cell_formula_units_Z   1
loop_
 _symmetry_equiv_pos_site_id
 _symmetry_equiv_pos_as_xyz
  1  'x, y, z'
loop_
 _atom_site_type_symbol
 _atom_site_label
 _atom_site_symmetry_multiplicity
 _atom_site_fract_x
 _atom_site_fract_y
 _atom_site_fract_z
 _atom_site_occupancy
  Ni  Ni0  1  0.00095860  0.00096030  0.00062191  1
  Ni  Ni1  1  0.16807093  0.16603351  0.16618208  1
  Ni  Ni2  1  0.00066640  0.99906288  0.33344608  1
  Ni  Ni3  1  0.99966611  0.33374981  1.00018192  1
  Ni  Ni4  1  0.16807093  0.50146611  0.16618208  1
  Cr  Cr5  1  1.00001232  0.33374981  0.33410314  1
  Ni  Ni6  1  0.00095860  0.66653931  0.00062191  1
  Ni  Ni7  1  0.16700826  0.83374981  0.16732471  1
  Ni  Ni8  1  0.00066640  0.66843674  0.33344608  1
  Ni  Ni9  1  0.33390930  0.99945160  1.00039578  1
  Ni  Ni10  1  0.50050061  0.16707675  0.16727010  1
  Ni  Ni11  1  0.33393309  1.00016133  0.33379660  1
  Fe  Fe12  1  0.33393922  0.33374981  1.00031799  1
  Ni  Ni13  1  0.50050061  0.50042287  0.16727010  1
  Ni  Ni14  1  0.33529727  0.33374981  0.33308186  1
  Ni  Ni15  1  0.33390930  0.66804802  1.00039578  1
  Ni  Ni16  1  0.50042887  0.83374981  0.16709412  1
  Ni  Ni17  1  0.33393309  0.66733829  0.33379660  1
  Ni  Ni18  1  0.66637125  0.00080152  1.00039119  1
  Ni  Ni19  1  0.83273317  0.16602045  0.16625741  1
  Ni  Ni20  1  0.66665385  0.00048708  0.33344649  1
  Ni  Ni21  1  0.66796054  0.33374981  0.00062712  1
  Ni  Ni22  1  0.83273317  0.50147917  0.16625741  1
  Ni  Ni23  1  0.66551192  0.33374981  0.33381178  1
  Ni  Ni24  1  0.66637125  0.66669810  1.00039119  1
  Ni  Ni25  1  0.83381558  0.83374981  0.16699456  1
  Ni  Ni26  1  0.66665385  0.66701254  0.33344649  1
  Ni  Ni27  1  0.16829039  0.16615214  0.50134421  1
  Ni  Ni28  1  0.00066458  0.00067159  0.66717555  1
  Ni  Ni29  1  0.16700283  0.16697006  0.83370773  1
  Ni  Ni30  1  0.16829039  0.50134748  0.50134421  1
  Ni  Ni31  1  1.00034481  0.33374981  0.66726255  1
  Ni  Ni32  1  0.16700283  0.50052956  0.83370773  1
  Ni  Ni33  1  0.16688845  0.83374981  0.50024449  1
  Ni  Ni34  1  0.00066458  0.66682803  0.66717555  1
  Ni  Ni35  1  0.16691496  0.83374981  0.83367634  1
  Ni  Ni36  1  0.50028833  0.16729061  0.50024214  1
  Ni  Ni37  1  0.33391577  1.00018372  0.66706858  1
  Ni  Ni38  1  0.50053985  0.16711747  0.83368067  1
  Ni  Ni39  1  0.50028833  0.50020901  0.50024214  1
  Ni  Ni40  1  0.33375067  0.33374981  0.66755339  1
  Ni  Ni41  1  0.50053985  0.50038215  0.83368067  1
  Ni  Ni42  1  0.50054174  0.83374981  0.50048071  1
  Ni  Ni43  1  0.33391577  0.66731590  0.66706858  1
  Ni  Ni44  1  0.50042567  0.83374981  0.83367795  1
  Ni  Ni45  1  0.83265737  0.16586360  0.50136929  1
  Ni  Ni46  1  0.66666815  0.00049869  0.66741273  1
  Ni  Ni47  1  0.83372691  0.16705668  0.83367722  1
  Ni  Ni48  1  0.83265737  0.50163602  0.50136929  1
  Ni  Ni49  1  0.66715276  0.33374981  0.66683466  1
  Ni  Ni50  1  0.83372691  0.50044293  0.83367722  1
  Ni  Ni51  1  0.83381993  0.83374981  0.50024152  1
  Ni  Ni52  1  0.66666815  0.66700093  0.66741273  1
  Ni  Ni53  1  0.83390784  0.83374981  0.83400937  1
" 