6270,Ni97Cr3_6,-200.684752464799, 201.39339835999,Ni97Cr3,"# generated using pymatgen
 data_Cr26Ni
_symmetry_space_group_name_H-M   'P 1'
_cell_length_a   7.60135149
_cell_length_b   7.60135149
_cell_length_c   10.74993438
_cell_angle_alpha   90.00000000
_cell_angle_beta   90.00000000
_cell_angle_gamma   90.00000000
_symmetry_Int_Tables_number   1
_chemical_formula_structural   Cr26Ni
_chemical_formula_sum   'Cr52 Ni2'
_cell_volume   621.13706215
_cell_formula_units_Z   2
loop_
 _symmetry_equiv_pos_site_id
 _symmetry_equiv_pos_as_xyz
  1  'x, y, z'
loop_
 _atom_site_type_symbol
 _atom_site_label
 _atom_site_symmetry_multiplicity
 _atom_site_fract_x
 _atom_site_fract_y
 _atom_site_fract_z
 _atom_site_occupancy
  Cr  Cr0  1  -0.00807240  0.99074763  0.99005686  1
  Cr  Cr1  1  0.15817607  0.15817619  0.15783266  1
  Cr  Cr2  1  -0.00883323  0.99011090  0.32449912  1
  Cr  Cr3  1  0.99082217  0.32415539  0.99116558  1
  Cr  Cr4  1  0.15707064  0.49158395  0.15894138  1
  Cr  Cr5  1  0.99115592  0.32555312  0.32449912  1
  Cr  Cr6  1  -0.00807244  0.65859423  0.99045861  1
  Cr  Cr7  1  0.15707069  0.82373735  0.15853963  1
  Ni  Ni8  1  0.99116571  0.65783238  0.32449912  1
  Cr  Cr9  1  0.32350783  0.99017449  0.99063377  1
  Cr  Cr10  1  0.49093617  0.15760284  0.15760681  1
  Cr  Cr11  1  0.32444716  0.99111383  0.32449912  1
  Cr  Cr12  1  0.32461317  0.32472908  -0.00825814  1
  Cr  Cr13  1  0.49093583  0.49105174  0.15725639  1
  Cr  Cr14  1  0.32445790  0.32455016  0.32449912  1
  Cr  Cr15  1  0.32408096  0.65859427  0.99005686  1
  Cr  Cr16  1  0.49150952  0.82484274  0.15783266  1
  Cr  Cr17  1  0.32344423  0.65783344  0.32449912  1
  Cr  Cr18  1  0.65806241  -0.00872016  -0.00825814  1
  Cr  Cr19  1  0.82438507  0.15760250  0.15725639  1
  Cr  Cr20  1  0.65788350  0.99112457  0.32449912  1
  Cr  Cr21  1  0.65806208  0.32472874  -0.00860857  1
  Cr  Cr22  1  0.82549042  0.49215708  0.15836448  1
  Cr  Cr23  1  0.65788353  0.32455020  0.32449912  1
  Cr  Cr24  1  0.65748872  0.65748884  0.99116558  1
  Cr  Cr25  1  0.82491728  0.82373731  0.15894138  1
  Cr  Cr26  1  0.65888645  0.65782258  0.32449912  1
  Cr  Cr27  1  0.15817607  0.15817619  0.49116558  1
  Cr  Cr28  1  -0.00807240  0.99074763  0.65894138  1
  Cr  Cr29  1  0.15784233  0.15677846  0.82449912  1
  Cr  Cr30  1  0.15707064  0.49158395  0.49005686  1
  Cr  Cr31  1  0.99082217  0.32415539  0.65783266  1
  Cr  Cr32  1  0.15783147  0.49222068  0.82449912  1
  Cr  Cr33  1  0.15707069  0.82373735  0.49045861  1
  Cr  Cr34  1  -0.00807244  0.65859423  0.65853963  1
  Ni  Ni35  1  0.15783253  0.82449920  0.82449912  1
  Cr  Cr36  1  0.49093617  0.15760284  0.49139143  1
  Cr  Cr37  1  0.32350783  0.99017449  0.65836448  1
  Cr  Cr38  1  0.49111471  0.15778138  0.82449912  1
  Cr  Cr39  1  0.49093583  0.49105174  0.49174186  1
  Cr  Cr40  1  0.32461317  0.32472908  0.65725639  1
  Cr  Cr41  1  0.49111475  0.49120701  0.82449912  1
  Cr  Cr42  1  0.49150952  0.82484274  0.49116558  1
  Cr  Cr43  1  0.32408096  0.65859427  0.65894138  1
  Cr  Cr44  1  0.49011180  0.82450900  0.82449912  1
  Cr  Cr45  1  0.82438507  0.15760250  0.49174186  1
  Cr  Cr46  1  0.65806241  -0.00872016  0.65725639  1
  Cr  Cr47  1  0.82454034  0.15778141  0.82449912  1
  Cr  Cr48  1  0.82549042  0.49215708  0.49063377  1
  Cr  Cr49  1  0.65806208  0.32472874  0.65760681  1
  Cr  Cr50  1  0.82455109  0.49121775  0.82449912  1
  Cr  Cr51  1  0.82491728  0.82373731  0.49005686  1
  Cr  Cr52  1  0.65748872  0.65748884  0.65783266  1
  Cr  Cr53  1  0.82555401  0.82449814  0.82449912  1
" 