102,Ni97Cr3_18,-200.668268207159, 201.278140444995,Ni97Cr3,"# generated using pymatgen
 data_Cr26Ni
_symmetry_space_group_name_H-M   'P 1'
_cell_length_a   7.60155661
_cell_length_b   7.60155661
_cell_length_c   10.75022446
_cell_angle_alpha   90.00000000
_cell_angle_beta   90.00000000
_cell_angle_gamma   90.00000000
_symmetry_Int_Tables_number   1
_chemical_formula_structural   Cr26Ni
_chemical_formula_sum   'Cr52 Ni2'
_cell_volume   621.18734638
_cell_formula_units_Z   2
loop_
 _symmetry_equiv_pos_site_id
 _symmetry_equiv_pos_as_xyz
  1  'x, y, z'
loop_
 _atom_site_type_symbol
 _atom_site_label
 _atom_site_symmetry_multiplicity
 _atom_site_fract_x
 _atom_site_fract_y
 _atom_site_fract_z
 _atom_site_occupancy
  Cr  Cr0  1  0.99115254  -0.00884576  -0.00884746  1
  Cr  Cr1  1  0.15816747  0.15781920  0.15751977  1
  Cr  Cr2  1  0.99115254  -0.00731537  0.32601531  1
  Cr  Cr3  1  0.99115254  0.32448417  -0.00884746  1
  Cr  Cr4  1  0.15758860  0.49127050  0.15769571  1
  Cr  Cr5  1  0.99115254  0.32295377  0.32601531  1
  Cr  Cr6  1  -0.00884746  0.65781920  -0.00884746  1
  Cr  Cr7  1  0.15758860  0.82436791  0.15769571  1
  Cr  Cr8  1  0.99115254  0.65781920  0.32378090  1
  Cr  Cr9  1  0.32448501  0.99114552  -0.00884746  1
  Cr  Cr10  1  0.49115254  0.15781920  0.15711223  1
  Cr  Cr11  1  0.32371494  -0.00842834  0.32489988  1
  Cr  Cr12  1  0.32448501  0.32449289  -0.00884746  1
  Cr  Cr13  1  0.49115254  0.49069069  0.15827809  1
  Cr  Cr14  1  0.32371494  0.32406674  0.32489988  1
  Cr  Cr15  1  0.32449362  0.65781920  -0.00884746  1
  Cr  Cr16  1  0.49115254  0.82494772  0.15827809  1
  Cr  Cr17  1  0.32483517  0.65781920  0.32413489  1
  Cr  Cr18  1  0.65782007  0.99114552  -0.00884746  1
  Cr  Cr19  1  0.82413760  0.15781920  0.15751977  1
  Cr  Cr20  1  0.65859013  -0.00842834  0.32489988  1
  Cr  Cr21  1  0.65782007  0.32449289  -0.00884746  1
  Cr  Cr22  1  0.82471647  0.49127050  0.15769571  1
  Cr  Cr23  1  0.65859013  0.32406674  0.32489988  1
  Cr  Cr24  1  0.65781146  0.65781920  -0.00884746  1
  Cr  Cr25  1  0.82471647  0.82436791  0.15769571  1
  Cr  Cr26  1  0.65746990  0.65781920  0.32413489  1
  Ni  Ni27  1  0.15589257  0.15781920  0.49115254  1
  Cr  Cr28  1  0.99115254  -0.00731537  0.65628976  1
  Cr  Cr29  1  0.15816747  0.15781920  0.82478530  1
  Cr  Cr30  1  0.15776770  0.49003647  0.49115254  1
  Cr  Cr31  1  0.99115254  0.32295377  0.65628976  1
  Cr  Cr32  1  0.15758860  0.49127050  0.82460936  1
  Cr  Cr33  1  0.15776770  0.82560193  0.49115254  1
  Cr  Cr34  1  0.99115254  0.65781920  0.65852417  1
  Cr  Cr35  1  0.15758860  0.82436791  0.82460936  1
  Cr  Cr36  1  0.49115254  0.15781920  0.49115254  1
  Cr  Cr37  1  0.32371494  -0.00842834  0.65740519  1
  Cr  Cr38  1  0.49115254  0.15781920  0.82519284  1
  Cr  Cr39  1  0.49115254  0.49104915  0.49115254  1
  Cr  Cr40  1  0.32371494  0.32406674  0.65740519  1
  Cr  Cr41  1  0.49115254  0.49069069  0.82402699  1
  Cr  Cr42  1  0.49115254  0.82458925  0.49115254  1
  Cr  Cr43  1  0.32483517  0.65781920  0.65817018  1
  Cr  Cr44  1  0.49115254  0.82494772  0.82402699  1
  Ni  Ni45  1  0.82641250  0.15781920  0.49115254  1
  Cr  Cr46  1  0.65859013  -0.00842834  0.65740519  1
  Cr  Cr47  1  0.82413760  0.15781920  0.82478530  1
  Cr  Cr48  1  0.82453737  0.49003647  0.49115254  1
  Cr  Cr49  1  0.65859013  0.32406674  0.65740519  1
  Cr  Cr50  1  0.82471647  0.49127050  0.82460936  1
  Cr  Cr51  1  0.82453737  0.82560193  0.49115254  1
  Cr  Cr52  1  0.65746990  0.65781920  0.65817018  1
  Cr  Cr53  1  0.82471647  0.82436791  0.82460936  1
" 