3955,Ni97Fe2Cr0_10,-239.841623209367, 180.327182200296,Ni97Fe2Cr0,"# generated using pymatgen
 data_CrFeNi52
_symmetry_space_group_name_H-M   'P 1'
_cell_length_a   7.46083309
_cell_length_b   7.46083309
_cell_length_c   10.55121135
_cell_angle_alpha   90.00000000
_cell_angle_beta   90.00000000
_cell_angle_gamma   90.00000000
_symmetry_Int_Tables_number   1
_chemical_formula_structural   CrFeNi52
_chemical_formula_sum   'Cr1 Fe1 Ni52'
_cell_volume   587.32294967
_cell_formula_units_Z   1
loop_
 _symmetry_equiv_pos_site_id
 _symmetry_equiv_pos_as_xyz
  1  'x, y, z'
loop_
 _atom_site_type_symbol
 _atom_site_label
 _atom_site_symmetry_multiplicity
 _atom_site_fract_x
 _atom_site_fract_y
 _atom_site_fract_z
 _atom_site_occupancy
  Ni  Ni0  1  1.00016837  0.00067159  0.00050888  1
  Ni  Ni1  1  0.16710604  0.16705668  0.16701056  1
  Ni  Ni2  1  0.99987435  0.00096030  0.33395524  1
  Ni  Ni3  1  0.00048814  0.33374981  0.00059588  1
  Ni  Ni4  1  0.16710604  0.50044293  0.16701056  1
  Ni  Ni5  1  0.00116684  0.33374981  0.33351525  1
  Ni  Ni6  1  1.00016837  0.66682803  0.00050888  1
  Ni  Ni7  1  0.16692511  0.83374981  0.16734270  1
  Ni  Ni8  1  0.99987435  0.66653931  0.33395524  1
  Ni  Ni9  1  0.33416480  0.00049869  0.00074607  1
  Ni  Ni10  1  0.50029310  0.16711747  0.16701400  1
  Ni  Ni11  1  0.33446171  0.00080152  0.33372453  1
  Ni  Ni12  1  0.33368020  0.33374981  1.00016799  1
  Ni  Ni13  1  0.50029310  0.50038215  0.16701400  1
  Ni  Ni14  1  0.33287241  0.33374981  0.33396045  1
  Ni  Ni15  1  0.33416480  0.66700093  0.00074607  1
  Ni  Ni16  1  0.50040728  0.83374981  0.16701129  1
  Ni  Ni17  1  0.33446171  0.66669810  0.33372453  1
  Ni  Ni18  1  0.66691718  1.00018372  1.00040192  1
  Ni  Ni19  1  0.83383012  0.16697006  0.16704106  1
  Ni  Ni20  1  0.66692366  0.99945160  0.33372911  1
  Ni  Ni21  1  0.66708228  0.33374981  0.00088672  1
  Ni  Ni22  1  0.83383012  0.50052956  0.16704106  1
  Fe  Fe23  1  0.66689373  0.33374981  0.33365132  1
  Ni  Ni24  1  0.66691718  0.66731590  1.00040192  1
  Ni  Ni25  1  0.83391800  0.83374981  0.16700968  1
  Ni  Ni26  1  0.66692366  0.66804802  0.33372911  1
  Ni  Ni27  1  0.16809978  0.16602045  0.49959075  1
  Ni  Ni28  1  1.00016655  0.99906288  0.66677941  1
  Ni  Ni29  1  0.16817558  0.16586360  0.83470262  1
  Ni  Ni30  1  0.16809978  0.50147917  0.49959075  1
  Cr  Cr31  1  0.00082063  0.33374981  0.66743647  1
  Ni  Ni32  1  0.16817558  0.50163602  0.83470262  1
  Ni  Ni33  1  0.16701737  0.83374981  0.50032789  1
  Ni  Ni34  1  1.00016655  0.66843674  0.66677941  1
  Ni  Ni35  1  0.16701302  0.83374981  0.83357485  1
  Ni  Ni36  1  0.50033234  0.16707675  0.50060343  1
  Ni  Ni37  1  0.33417910  0.00048708  0.66677983  1
  Ni  Ni38  1  0.50054462  0.16729061  0.83357548  1
  Ni  Ni39  1  0.50033234  0.50042287  0.50060343  1
  Ni  Ni40  1  0.33532103  0.33374981  0.66714512  1
  Ni  Ni41  1  0.50054462  0.50020901  0.83357548  1
  Ni  Ni42  1  0.50040409  0.83374981  0.50042745  1
  Ni  Ni43  1  0.33417910  0.66701254  0.66677983  1
  Ni  Ni44  1  0.50029121  0.83374981  0.83381404  1
  Ni  Ni45  1  0.83276202  0.16603351  0.49951541  1
  Ni  Ni46  1  0.66689986  1.00016133  0.66712993  1
  Ni  Ni47  1  0.83254256  0.16615214  0.83467754  1
  Ni  Ni48  1  0.83276202  0.50146611  0.49951541  1
  Ni  Ni49  1  0.66553568  0.33374981  0.66641519  1
  Ni  Ni50  1  0.83254256  0.50134748  0.83467754  1
  Ni  Ni51  1  0.83382469  0.83374981  0.50065804  1
  Ni  Ni52  1  0.66689986  0.66733829  0.66712993  1
  Ni  Ni53  1  0.83394450  0.83374981  0.83357783  1
" 