1918,Ni97Fe3_14,-224.297007446556, 127.926136337144,Ni97Fe3,"# generated using pymatgen
 data_Fe26Ni
_symmetry_space_group_name_H-M   'P 1'
_cell_length_a   7.41292002
_cell_length_b   7.41292002
_cell_length_c   10.48345203
_cell_angle_alpha   90.00000000
_cell_angle_beta   90.00000000
_cell_angle_gamma   90.00000000
_symmetry_Int_Tables_number   1
_chemical_formula_structural   Fe26Ni
_chemical_formula_sum   'Fe52 Ni2'
_cell_volume   576.08018992
_cell_formula_units_Z   2
loop_
 _symmetry_equiv_pos_site_id
 _symmetry_equiv_pos_as_xyz
  1  'x, y, z'
loop_
 _atom_site_type_symbol
 _atom_site_label
 _atom_site_symmetry_multiplicity
 _atom_site_fract_x
 _atom_site_fract_y
 _atom_site_fract_z
 _atom_site_occupancy
  Fe  Fe0  1  0.00365466  1.00364712  1.00364712  1
  Fe  Fe1  1  0.17032133  0.17031378  0.17031377  1
  Fe  Fe2  1  1.00365001  1.00365089  0.33698509  1
  Fe  Fe3  1  0.00365880  0.33697718  0.00365177  1
  Fe  Fe4  1  0.17031670  0.50365090  0.17031842  1
  Fe  Fe5  1  0.00365090  0.33698422  0.33698422  1
  Fe  Fe6  1  0.00365417  0.67032838  1.00364712  1
  Fe  Fe7  1  0.17032221  0.83698800  0.17031465  1
  Fe  Fe8  1  0.00365090  0.67031757  0.33698422  1
  Ni  Ni9  1  0.33698423  1.00365011  1.00365012  1
  Fe  Fe10  1  0.50364713  0.17031378  0.17031377  1
  Fe  Fe11  1  0.33698423  1.00365089  0.33697718  1
  Fe  Fe12  1  0.33698423  0.33697669  1.00365088  1
  Fe  Fe13  1  0.50365176  0.50365090  0.17031842  1
  Fe  Fe14  1  0.33698423  0.33698511  0.33698509  1
  Fe  Fe15  1  0.33698423  0.67032424  0.00365177  1
  Fe  Fe16  1  0.50364624  0.83698800  0.17031465  1
  Fe  Fe17  1  0.33698423  0.67031669  0.33698509  1
  Fe  Fe18  1  0.67031380  1.00364712  1.00364712  1
  Fe  Fe19  1  0.83698423  0.17031930  0.17031930  1
  Fe  Fe20  1  0.67031845  1.00365089  0.33698509  1
  Fe  Fe21  1  0.67030966  0.33697718  0.00365177  1
  Fe  Fe22  1  0.83698423  0.50365002  0.17031841  1
  Fe  Fe23  1  0.67031756  0.33698422  0.33698422  1
  Fe  Fe24  1  0.67031429  0.67032838  1.00364712  1
  Fe  Fe25  1  0.83698423  0.83698337  0.17031138  1
  Fe  Fe26  1  0.67031756  0.67031757  0.33698422  1
  Fe  Fe27  1  0.17031756  0.17031755  0.50365091  1
  Fe  Fe28  1  1.00364624  1.00364712  0.67032048  1
  Fe  Fe29  1  0.17031429  0.17030674  0.83698800  1
  Fe  Fe30  1  0.17031756  0.50365090  0.50365091  1
  Fe  Fe31  1  0.00365176  0.33698422  0.67031670  1
  Fe  Fe32  1  0.17030966  0.50365794  0.83698336  1
  Fe  Fe33  1  0.17031845  0.83698424  0.50365003  1
  Fe  Fe34  1  1.00364713  0.67032134  0.67032135  1
  Fe  Fe35  1  0.17031380  0.83698800  0.83698801  1
  Fe  Fe36  1  0.50365090  0.17031755  0.50365091  1
  Fe  Fe37  1  0.33698423  0.00365176  0.67032374  1
  Fe  Fe38  1  0.50365417  0.17030674  0.83698800  1
  Fe  Fe39  1  0.50365090  0.50365090  0.50365091  1
  Fe  Fe40  1  0.33698423  0.33698511  0.67031671  1
  Fe  Fe41  1  0.50365880  0.50365794  0.83698336  1
  Fe  Fe42  1  0.50365001  0.83698424  0.50365003  1
  Fe  Fe43  1  0.33698423  0.67031582  0.67031583  1
  Fe  Fe44  1  0.50365466  0.83698800  0.83698801  1
  Fe  Fe45  1  0.83698423  0.17031844  0.50365003  1
  Fe  Fe46  1  0.67032221  1.00364712  0.67032048  1
  Fe  Fe47  1  0.83698423  0.17031089  0.83698336  1
  Fe  Fe48  1  0.83698423  0.50365002  0.50365003  1
  Fe  Fe49  1  0.67031670  0.33698422  0.67031670  1
  Fe  Fe50  1  0.83698423  0.50365843  0.83698424  1
  Fe  Fe51  1  0.83698423  0.83698423  0.50365795  1
  Fe  Fe52  1  0.67032133  0.67032134  0.67032135  1
  Ni  Ni53  1  0.83698423  0.83698501  0.83698500  1
" 