2915,Ni97Cr3_13,-200.695926384685, 201.664001716719,Ni97Cr3,"# generated using pymatgen
 data_Cr26Ni
_symmetry_space_group_name_H-M   'P 1'
_cell_length_a   7.60092809
_cell_length_b   7.60092809
_cell_length_c   10.74933559
_cell_angle_alpha   90.00000000
_cell_angle_beta   90.00000000
_cell_angle_gamma   90.00000000
_symmetry_Int_Tables_number   1
_chemical_formula_structural   Cr26Ni
_chemical_formula_sum   'Cr52 Ni2'
_cell_volume   621.03327325
_cell_formula_units_Z   2
loop_
 _symmetry_equiv_pos_site_id
 _symmetry_equiv_pos_as_xyz
  1  'x, y, z'
loop_
 _atom_site_type_symbol
 _atom_site_label
 _atom_site_symmetry_multiplicity
 _atom_site_fract_x
 _atom_site_fract_y
 _atom_site_fract_z
 _atom_site_occupancy
  Cr  Cr0  1  0.99119315  -0.00836508  -0.00880685  1
  Cr  Cr1  1  0.15786054  0.15752837  0.15752376  1
  Cr  Cr2  1  -0.00863512  -0.00853688  0.32474582  1
  Cr  Cr3  1  -0.00880685  0.32452648  -0.00880685  1
  Cr  Cr4  1  0.15786054  0.49152459  0.15752376  1
  Cr  Cr5  1  0.98983921  0.32452648  0.32418982  1
  Cr  Cr6  1  0.99119315  0.65741805  -0.00880685  1
  Cr  Cr7  1  0.15785162  0.82452648  0.15786176  1
  Cr  Cr8  1  -0.00863512  0.65758984  0.32474582  1
  Cr  Cr9  1  0.32474739  0.99108195  -0.00825116  1
  Cr  Cr10  1  0.49192771  0.15859598  0.15859362  1
  Cr  Cr11  1  0.32457588  0.99091042  0.32419009  1
  Cr  Cr12  1  0.32419435  0.32452648  0.99080677  1
  Cr  Cr13  1  0.49192771  0.49045699  0.15859362  1
  Cr  Cr14  1  0.32554521  0.32452648  0.32457690  1
  Cr  Cr15  1  0.32474739  0.65797102  -0.00825116  1
  Cr  Cr16  1  0.49086903  0.82452648  0.15752373  1
  Cr  Cr17  1  0.32457588  0.65814255  0.32419009  1
  Cr  Cr18  1  0.65763891  0.99108195  0.99063746  1
  Cr  Cr19  1  0.82379049  0.15858768  0.15859436  1
  Cr  Cr20  1  0.65763895  -0.00756582  0.32474576  1
  Cr  Cr21  1  0.65819195  0.32452648  -0.00842047  1
  Cr  Cr22  1  0.82379049  0.49046528  0.15859436  1
  Ni  Ni23  1  0.65798518  0.32452648  0.32439505  1
  Cr  Cr24  1  0.65763891  0.65797102  0.99063746  1
  Cr  Cr25  1  0.82485878  0.82452648  0.15752370  1
  Cr  Cr26  1  0.65763895  0.65661879  0.32474576  1
  Cr  Cr27  1  0.15859540  0.15826225  0.49226275  1
  Cr  Cr28  1  0.99102142  -0.00853688  0.65764048  1
  Cr  Cr29  1  0.15859580  0.15858768  0.82379194  1
  Cr  Cr30  1  0.15859540  0.49079071  0.49226275  1
  Cr  Cr31  1  -0.00745291  0.32452648  0.65819648  1
  Cr  Cr32  1  0.15859580  0.49046528  0.82379194  1
  Cr  Cr33  1  0.15752759  0.82452648  0.49085504  1
  Cr  Cr34  1  0.99102142  0.65758984  0.65764048  1
  Cr  Cr35  1  0.15752752  0.82452648  0.82486259  1
  Cr  Cr36  1  0.49119315  0.15932625  0.49119315  1
  Cr  Cr37  1  0.32474735  -0.00756582  0.65764054  1
  Cr  Cr38  1  0.49045859  0.15859598  0.82379267  1
  Cr  Cr39  1  0.49119315  0.48972672  0.49119315  1
  Ni  Ni40  1  0.32440112  0.32452648  0.65799125  1
  Cr  Cr41  1  0.49045859  0.49045699  0.82379267  1
  Cr  Cr42  1  0.49119315  0.82452648  0.49119315  1
  Cr  Cr43  1  0.32474735  0.65661879  0.65764054  1
  Cr  Cr44  1  0.49151727  0.82452648  0.82486256  1
  Cr  Cr45  1  0.82379090  0.15826225  0.49012355  1
  Cr  Cr46  1  0.65781042  0.99091042  0.65819621  1
  Cr  Cr47  1  0.82452576  0.15752837  0.82486254  1
  Cr  Cr48  1  0.82379090  0.49079071  0.49012355  1
  Cr  Cr49  1  0.65684109  0.32452648  0.65780940  1
  Cr  Cr50  1  0.82452576  0.49152459  0.82486254  1
  Cr  Cr51  1  0.82485870  0.82452648  0.49153126  1
  Cr  Cr52  1  0.65781042  0.65814255  0.65819621  1
  Cr  Cr53  1  0.82453468  0.82452648  0.82452454  1
" 