2646,Ni9Cr91_7,-237.106976151108, 169.793302646856,Ni9Cr91,"# generated using pymatgen
 data_Cr2Ni25
_symmetry_space_group_name_H-M   'P 1'
_cell_length_a   7.46819030
_cell_length_b   7.46819030
_cell_length_c   10.56161600
_cell_angle_alpha   90.00000000
_cell_angle_beta   90.00000000
_cell_angle_gamma   90.00000000
_symmetry_Int_Tables_number   1
_chemical_formula_structural   Cr2Ni25
_chemical_formula_sum   'Cr4 Ni50'
_cell_volume   589.06215904
_cell_formula_units_Z   2
loop_
 _symmetry_equiv_pos_site_id
 _symmetry_equiv_pos_as_xyz
  1  'x, y, z'
loop_
 _atom_site_type_symbol
 _atom_site_label
 _atom_site_symmetry_multiplicity
 _atom_site_fract_x
 _atom_site_fract_y
 _atom_site_fract_z
 _atom_site_occupancy
  Cr  Cr0  1  0.99836295  0.99923195  0.00129950  1
  Ni  Ni1  1  0.16775569  0.16765730  0.16758417  1
  Ni  Ni2  1  0.99880597  0.99895233  0.33252207  1
  Ni  Ni3  1  0.99879248  0.33612627  0.00087202  1
  Ni  Ni4  1  0.16642982  0.49970432  0.16637444  1
  Ni  Ni5  1  0.99880540  0.33411369  0.33208005  1
  Ni  Ni6  1  0.00027771  0.66475543  0.99947107  1
  Ni  Ni7  1  0.16762822  0.83241855  0.16756584  1
  Ni  Ni8  1  0.00027843  0.66670777  0.33346605  1
  Ni  Ni9  1  0.33610124  0.99876521  0.00064870  1
  Ni  Ni10  1  0.49962913  0.16643895  0.16637277  1
  Ni  Ni11  1  0.33418252  0.99877432  0.33230355  1
  Ni  Ni12  1  0.33448785  0.33459731  0.00063972  1
  Ni  Ni13  1  0.50008273  0.50006113  0.16663159  1
  Ni  Ni14  1  0.33437137  0.33448485  0.33253616  1
  Ni  Ni15  1  0.33319961  0.66639464  -0.00007589  1
  Ni  Ni16  1  0.50009674  0.83327530  0.16637147  1
  Ni  Ni17  1  0.33309220  0.66651205  0.33325279  1
  Ni  Ni18  1  0.66473563  0.00024629  0.99969713  1
  Ni  Ni19  1  0.83236576  0.16767920  0.16760866  1
  Ni  Ni20  1  0.66678155  0.00024146  0.33323591  1
  Ni  Ni21  1  0.66647080  0.33311655  0.99969847  1
  Ni  Ni22  1  0.83326667  0.50016920  0.16636972  1
  Ni  Ni23  1  0.66658303  0.33301430  0.33347324  1
  Ni  Ni24  1  0.66630615  0.66641299  0.99973037  1
  Ni  Ni25  1  0.83205831  0.83195998  0.16755590  1
  Ni  Ni26  1  0.66639842  0.66650954  0.33344663  1
  Cr  Cr27  1  0.16674293  0.16658813  0.50016784  1
  Ni  Ni28  1  0.99760586  0.99798121  0.66637274  1
  Cr  Cr29  1  0.16785187  0.16768476  0.83199414  1
  Ni  Ni30  1  0.16542857  0.50058854  0.49918371  1
  Ni  Ni31  1  0.99760654  0.33510488  0.66681533  1
  Ni  Ni32  1  0.16541702  0.50066383  0.83418361  1
  Ni  Ni33  1  0.16555721  0.83255681  0.49919767  1
  Ni  Ni34  1  0.99844033  0.66668712  0.66682277  1
  Ni  Ni35  1  0.16659880  0.83151633  0.83301849  1
  Ni  Ni36  1  0.50148861  0.16649992  0.50038264  1
  Ni  Ni37  1  0.33529443  0.99960126  0.66681096  1
  Ni  Ni38  1  0.50155068  0.16644580  0.83302506  1
  Ni  Ni39  1  0.50127264  0.49909292  0.49893212  1
  Ni  Ni40  1  0.33545377  0.33354831  0.66661334  1
  Ni  Ni41  1  0.50122250  0.49912357  0.83416056  1
  Ni  Ni42  1  0.50124956  0.83416874  0.49895538  1
  Cr  Cr43  1  0.33338668  0.66617910  0.66623647  1
  Ni  Ni44  1  0.50123872  0.83418185  0.83439721  1
  Ni  Ni45  1  0.83151630  0.16660062  0.50011466  1
  Ni  Ni46  1  0.66687516  0.00040592  0.66682529  1
  Ni  Ni47  1  0.83045988  0.16764452  0.83209087  1
  Ni  Ni48  1  0.83309282  0.50033334  0.50014930  1
  Ni  Ni49  1  0.66668769  0.33284846  0.66660721  1
  Ni  Ni50  1  0.83314761  0.50033479  0.83324313  1
  Ni  Ni51  1  0.83298771  0.83284095  0.50014956  1
  Ni  Ni52  1  0.66840096  0.66651129  0.66660179  1
  Ni  Ni53  1  0.83194757  0.83181498  0.83208485  1
" 