4867,Ni9Cr91_9,-237.118984886071, 170.084808285673,Ni9Cr91,"# generated using pymatgen
 data_Cr2Ni25
_symmetry_space_group_name_H-M   'P 1'
_cell_length_a   7.46802751
_cell_length_b   7.46802751
_cell_length_c   10.56138578
_cell_angle_alpha   90.00000000
_cell_angle_beta   90.00000000
_cell_angle_gamma   90.00000000
_symmetry_Int_Tables_number   1
_chemical_formula_structural   Cr2Ni25
_chemical_formula_sum   'Cr4 Ni50'
_cell_volume   589.02363883
_cell_formula_units_Z   2
loop_
 _symmetry_equiv_pos_site_id
 _symmetry_equiv_pos_as_xyz
  1  'x, y, z'
loop_
 _atom_site_type_symbol
 _atom_site_label
 _atom_site_symmetry_multiplicity
 _atom_site_fract_x
 _atom_site_fract_y
 _atom_site_fract_z
 _atom_site_occupancy
  Ni  Ni0  1  0.99978425  0.00023434  0.99991903  1
  Ni  Ni1  1  0.16684810  0.16675026  0.16674213  1
  Ni  Ni2  1  0.99974757  0.00023970  0.33150702  1
  Ni  Ni3  1  0.99961916  0.33298529  0.99992020  1
  Ni  Ni4  1  0.16549343  0.49881033  0.16580993  1
  Ni  Ni5  1  0.99855893  0.33406144  0.33269794  1
  Ni  Ni6  1  0.00011059  0.66658501  0.00014184  1
  Ni  Ni7  1  0.16533017  0.83423381  0.16604661  1
  Ni  Ni8  1  0.99934987  0.66551650  0.33244744  1
  Ni  Ni9  1  0.33326773  0.99974026  0.00014340  1
  Ni  Ni10  1  0.49968736  0.16675026  0.16674213  1
  Ni  Ni11  1  0.33326773  0.99933982  0.33145189  1
  Ni  Ni12  1  0.33326773  0.33331047  0.00014083  1
  Ni  Ni13  1  0.50104202  0.49881033  0.16580993  1
  Ni  Ni14  1  0.33326773  0.33373136  0.33124768  1
  Ni  Ni15  1  0.33326773  0.66675069  0.99968813  1
  Ni  Ni16  1  0.50120529  0.83423381  0.16604661  1
  Cr  Cr17  1  0.33326773  0.66668165  0.33384074  1
  Ni  Ni18  1  0.66675120  0.00023434  0.99991903  1
  Ni  Ni19  1  0.83326773  0.16657806  0.16720638  1
  Ni  Ni20  1  0.66678789  0.00023970  0.33150702  1
  Ni  Ni21  1  0.66691629  0.33298529  0.99992020  1
  Ni  Ni22  1  0.83326773  0.50035127  0.16694721  1
  Ni  Ni23  1  0.66797653  0.33406144  0.33269794  1
  Ni  Ni24  1  0.66642487  0.66658501  0.00014184  1
  Ni  Ni25  1  0.83326773  0.83287617  0.16649912  1
  Ni  Ni26  1  0.66718558  0.66551650  0.33244744  1
  Cr  Cr27  1  0.16527274  0.16654287  0.49973205  1
  Ni  Ni28  1  0.99980955  0.00018652  0.66838853  1
  Ni  Ni29  1  0.16691363  0.16675385  0.83331653  1
  Ni  Ni30  1  0.16548345  0.50055000  0.50088905  1
  Ni  Ni31  1  0.99860211  0.33412062  0.66719965  1
  Ni  Ni32  1  0.16658102  0.49990262  0.83309054  1
  Ni  Ni33  1  0.16705525  0.83238237  0.50089362  1
  Ni  Ni34  1  0.00110600  0.66551569  0.66720349  1
  Ni  Ni35  1  0.16641145  0.83314811  0.83285472  1
  Cr  Cr36  1  0.50126271  0.16654287  0.49973205  1
  Ni  Ni37  1  0.33326773  0.99754765  0.66821600  1
  Ni  Ni38  1  0.49962182  0.16675385  0.83331653  1
  Ni  Ni39  1  0.50105200  0.50055000  0.50088905  1
  Ni  Ni40  1  0.33326773  0.33553425  0.66841929  1
  Ni  Ni41  1  0.49995444  0.49990262  0.83309054  1
  Ni  Ni42  1  0.49948020  0.83238237  0.50089362  1
  Ni  Ni43  1  0.33326773  0.66669802  0.66629107  1
  Ni  Ni44  1  0.50012400  0.83314811  0.83285472  1
  Ni  Ni45  1  0.83326773  0.16843313  0.50000243  1
  Ni  Ni46  1  0.66672590  0.00018652  0.66838853  1
  Ni  Ni47  1  0.83326773  0.16658315  0.83261066  1
  Ni  Ni48  1  0.83326773  0.49876228  0.49975762  1
  Ni  Ni49  1  0.66793335  0.33412062  0.66719965  1
  Ni  Ni50  1  0.83326773  0.50040982  0.83309921  1
  Cr  Cr51  1  0.83326773  0.83328441  0.49974734  1
  Ni  Ni52  1  0.66542946  0.66551569  0.66720349  1
  Ni  Ni53  1  0.83326773  0.83280618  0.83354763  1
" 