3959,Ni9Cr91_6,-237.024584204028, 168.739169930351,Ni9Cr91,"# generated using pymatgen
 data_Cr2Ni25
_symmetry_space_group_name_H-M   'P 1'
_cell_length_a   7.46887998
_cell_length_b   7.46887998
_cell_length_c   10.56259136
_cell_angle_alpha   90.00000000
_cell_angle_beta   90.00000000
_cell_angle_gamma   90.00000000
_symmetry_Int_Tables_number   1
_chemical_formula_structural   Cr2Ni25
_chemical_formula_sum   'Cr4 Ni50'
_cell_volume   589.22537263
_cell_formula_units_Z   2
loop_
 _symmetry_equiv_pos_site_id
 _symmetry_equiv_pos_as_xyz
  1  'x, y, z'
loop_
 _atom_site_type_symbol
 _atom_site_label
 _atom_site_symmetry_multiplicity
 _atom_site_fract_x
 _atom_site_fract_y
 _atom_site_fract_z
 _atom_site_occupancy
  Ni  Ni0  1  0.00103112  0.99895123  0.00062601  1
  Ni  Ni1  1  0.16672296  0.16635256  0.16677357  1
  Ni  Ni2  1  0.99980603  -0.00009029  0.33352289  1
  Ni  Ni3  1  0.00207119  0.33300690  0.00180422  1
  Ni  Ni4  1  0.16655613  0.50022100  0.16611521  1
  Ni  Ni5  1  0.99886898  0.33212583  0.33247109  1
  Ni  Ni6  1  0.00088587  0.66767797  0.00065977  1
  Ni  Ni7  1  0.16671952  0.83305661  0.16677192  1
  Ni  Ni8  1  0.99869098  0.66761129  0.33223798  1
  Ni  Ni9  1  0.33305000  -0.00009568  0.99978597  1
  Ni  Ni10  1  0.49986520  0.16620033  0.16611521  1
  Ni  Ni11  1  0.33205427  0.99890116  0.33239981  1
  Ni  Ni12  1  0.33321067  0.33321067  0.99957019  1
  Ni  Ni13  1  0.49969838  0.50006877  0.16677357  1
  Ni  Ni14  1  0.33321067  0.33321067  0.33127212  1
  Ni  Ni15  1  0.33337134  0.66651702  0.99978597  1
  Ni  Ni16  1  0.49970182  0.83336473  0.16677192  1
  Ni  Ni17  1  0.33436706  0.66752017  0.33239981  1
  Ni  Ni18  1  0.66553546  0.99874336  0.00065977  1
  Ni  Ni19  1  0.83305765  0.16634595  0.16675258  1
  Ni  Ni20  1  0.66773035  0.99881004  0.33223798  1
  Ni  Ni21  1  0.66435014  0.33341443  0.00180422  1
  Ni  Ni22  1  0.83336368  0.50007538  0.16675258  1
  Ni  Ni23  1  0.66755235  0.33429551  0.33247109  1
  Ni  Ni24  1  0.66539022  0.66747011  0.00062601  1
  Ni  Ni25  1  0.83321067  0.83321067  0.16609046  1
  Ni  Ni26  1  0.66661530  0.66651162  0.33352289  1
  Ni  Ni27  1  0.16501781  0.16481834  0.50004563  1
  Ni  Ni28  1  0.00089089  0.99889747  0.66555343  1
  Ni  Ni29  1  0.16822126  0.16633224  0.83281418  1
  Cr  Cr30  1  0.16719656  0.50041810  0.49967643  1
  Ni  Ni31  1  0.00099563  0.33215338  0.66544083  1
  Ni  Ni32  1  0.16818778  0.50025423  0.83348365  1
  Ni  Ni33  1  0.16672993  0.83461142  0.49980674  1
  Ni  Ni34  1  0.99985701  0.66859017  0.66673365  1
  Ni  Ni35  1  0.16673424  0.83304493  0.83305537  1
  Cr  Cr36  1  0.49922477  0.16600323  0.49967643  1
  Ni  Ni37  1  0.33211521  0.99886633  0.66737420  1
  Ni  Ni38  1  0.49823356  0.16616710  0.83348365  1
  Ni  Ni39  1  0.50140352  0.50160299  0.50004563  1
  Ni  Ni40  1  0.33321067  0.33321067  0.66865133  1
  Ni  Ni41  1  0.49820008  0.50008910  0.83281418  1
  Ni  Ni42  1  0.49969140  0.83180992  0.49980674  1
  Ni  Ni43  1  0.33430612  0.66755501  0.66737420  1
  Ni  Ni44  1  0.49968709  0.83337640  0.83305537  1
  Ni  Ni45  1  0.83445481  0.16634719  0.49981989  1
  Ni  Ni46  1  0.66656432  0.99783116  0.66673365  1
  Cr  Cr47  1  0.83267346  0.16474456  0.83340331  1
  Ni  Ni48  1  0.83196652  0.50007414  0.49981989  1
  Ni  Ni49  1  0.66542570  0.33426795  0.66544083  1
  Cr  Cr50  1  0.83374787  0.50167677  0.83340331  1
  Ni  Ni51  1  0.83321067  0.83321067  0.50026684  1
  Ni  Ni52  1  0.66553045  0.66752386  0.66555343  1
  Ni  Ni53  1  0.83321067  0.83321067  0.83326837  1
" 