1952,Ni9Cr91_19,-237.090633649372, 169.79560941209,Ni9Cr91,"# generated using pymatgen
 data_Cr2Ni25
_symmetry_space_group_name_H-M   'P 1'
_cell_length_a   7.46880969
_cell_length_b   7.46880969
_cell_length_c   10.56249196
_cell_angle_alpha   90.00000000
_cell_angle_beta   90.00000000
_cell_angle_gamma   90.00000000
_symmetry_Int_Tables_number   1
_chemical_formula_structural   Cr2Ni25
_chemical_formula_sum   'Cr4 Ni50'
_cell_volume   589.20873688
_cell_formula_units_Z   2
loop_
 _symmetry_equiv_pos_site_id
 _symmetry_equiv_pos_as_xyz
  1  'x, y, z'
loop_
 _atom_site_type_symbol
 _atom_site_label
 _atom_site_symmetry_multiplicity
 _atom_site_fract_x
 _atom_site_fract_y
 _atom_site_fract_z
 _atom_site_occupancy
  Ni  Ni0  1  0.99830314  0.99830446  -0.00011616  1
  Cr  Cr1  1  0.16654720  0.16654870  0.16652307  1
  Ni  Ni2  1  0.99909418  0.00078041  0.33400064  1
  Ni  Ni3  1  0.99830314  0.33479295  -0.00011616  1
  Ni  Ni4  1  0.16739169  0.50049791  0.16547717  1
  Ni  Ni5  1  0.99909418  0.33231700  0.33400064  1
  Ni  Ni6  1  0.00033330  0.66654870  0.99975093  1
  Ni  Ni7  1  0.16739169  0.83259950  0.16547717  1
  Cr  Cr8  1  0.00009454  0.66654870  0.33300352  1
  Ni  Ni9  1  0.33395033  0.99745601  0.00072981  1
  Ni  Ni10  1  0.50134012  0.16654870  0.16645184  1
  Ni  Ni11  1  0.33413405  0.99922574  0.33400024  1
  Ni  Ni12  1  0.33395033  0.33564140  0.00072981  1
  Ni  Ni13  1  0.49995784  0.49995922  0.16649021  1
  Ni  Ni14  1  0.33413405  0.33387167  0.33400024  1
  Ni  Ni15  1  0.33276513  0.66654870  -0.00011697  1
  Ni  Ni16  1  0.49995784  0.83313819  0.16649021  1
  Ni  Ni17  1  0.33467195  0.66654870  0.33298781  1
  Ni  Ni18  1  0.66739318  0.99948974  0.00072565  1
  Ni  Ni19  1  0.83175814  0.16654870  0.16631962  1
  Ni  Ni20  1  0.66641742  0.00024186  0.33298789  1
  Ni  Ni21  1  0.66739318  0.33360767  0.00072565  1
  Ni  Ni22  1  0.83229660  0.49911588  0.16564875  1
  Ni  Ni23  1  0.66641742  0.33285554  0.33298789  1
  Ni  Ni24  1  0.66654756  0.66654870  -0.00011734  1
  Ni  Ni25  1  0.83229660  0.83398153  0.16564875  1
  Ni  Ni26  1  0.66486327  0.66654870  0.33321600  1
  Ni  Ni27  1  0.16654743  0.16654870  0.49988231  1
  Ni  Ni28  1  0.99909321  0.99909452  0.66576196  1
  Cr  Cr29  1  0.16529833  0.16654870  0.83323989  1
  Ni  Ni30  1  0.16739128  0.49859016  0.50072521  1
  Ni  Ni31  1  0.99909321  0.33400289  0.66576196  1
  Ni  Ni32  1  0.16641734  0.50147474  0.83344358  1
  Ni  Ni33  1  0.16739128  0.83450725  0.50072521  1
  Ni  Ni34  1  0.00011049  0.66654870  0.66690759  1
  Ni  Ni35  1  0.16641734  0.83162267  0.83344358  1
  Ni  Ni36  1  0.49943327  0.16654870  0.49975050  1
  Ni  Ni37  1  0.33316032  0.99824660  0.66491585  1
  Cr  Cr38  1  0.50092193  0.16654870  0.83342870  1
  Ni  Ni39  1  0.49977179  0.49977320  0.49988273  1
  Ni  Ni40  1  0.33316032  0.33485081  0.66491585  1
  Ni  Ni41  1  0.49995825  0.50164671  0.83327323  1
  Ni  Ni42  1  0.49977179  0.83332421  0.49988273  1
  Ni  Ni43  1  0.33298813  0.66654870  0.66677549  1
  Ni  Ni44  1  0.49995825  0.83145070  0.83327323  1
  Ni  Ni45  1  0.83366553  0.16654870  0.49988253  1
  Ni  Ni46  1  0.66739301  0.99926680  0.66593238  1
  Ni  Ni47  1  0.83344270  0.16654870  0.83344374  1
  Ni  Ni48  1  0.83248260  0.49892926  0.50072441  1
  Ni  Ni49  1  0.66739301  0.33383061  0.66593238  1
  Ni  Ni50  1  0.83327052  0.50008974  0.83327307  1
  Ni  Ni51  1  0.83248260  0.83416815  0.50072441  1
  Ni  Ni52  1  0.66654751  0.66654870  0.66654753  1
  Ni  Ni53  1  0.83327052  0.83300767  0.83327307  1
" 