1296,Ni9Cr91_17,-237.127192108263, 170.052585758862,Ni9Cr91,"# generated using pymatgen
 data_Cr2Ni25
_symmetry_space_group_name_H-M   'P 1'
_cell_length_a   7.46706407
_cell_length_b   7.46706407
_cell_length_c   10.56002328
_cell_angle_alpha   90.00000000
_cell_angle_beta   90.00000000
_cell_angle_gamma   90.00000000
_symmetry_Int_Tables_number   1
_chemical_formula_structural   Cr2Ni25
_chemical_formula_sum   'Cr4 Ni50'
_cell_volume   588.79570198
_cell_formula_units_Z   2
loop_
 _symmetry_equiv_pos_site_id
 _symmetry_equiv_pos_as_xyz
  1  'x, y, z'
loop_
 _atom_site_type_symbol
 _atom_site_label
 _atom_site_symmetry_multiplicity
 _atom_site_fract_x
 _atom_site_fract_y
 _atom_site_fract_z
 _atom_site_occupancy
  Ni  Ni0  1  0.00086268  0.00254844  0.99912038  1
  Ni  Ni1  1  0.16651561  0.16667049  0.16644985  1
  Ni  Ni2  1  0.00086158  0.00068878  0.33399004  1
  Ni  Ni3  1  0.99981143  0.33181863  0.00039153  1
  Ni  Ni4  1  0.16599090  0.49898143  0.16749812  1
  Ni  Ni5  1  0.99981055  0.33369880  0.33271278  1
  Cr  Cr6  1  0.00103366  0.66558264  0.99913171  1
  Ni  Ni7  1  0.16905847  0.83434939  0.16749789  1
  Ni  Ni8  1  0.00104638  0.66561285  0.33433578  1
  Ni  Ni9  1  0.33367606  0.99978143  0.00020617  1
  Ni  Ni10  1  0.49981768  0.16512984  0.16668171  1
  Ni  Ni11  1  0.33352498  0.99962753  0.33308537  1
  Ni  Ni12  1  0.33262041  0.33250527  0.99893439  1
  Cr  Cr13  1  0.50004556  0.50021432  0.16645831  1
  Ni  Ni14  1  0.33247049  0.33265146  0.33435989  1
  Ni  Ni15  1  0.33417909  0.66771758  0.99954202  1
  Ni  Ni16  1  0.49827681  0.83485282  0.16645061  1
  Ni  Ni17  1  0.33229684  0.66771734  0.33356440  1
  Ni  Ni18  1  0.66545976  0.00101560  0.99934796  1
  Ni  Ni19  1  0.83366644  0.16821908  0.16644966  1
  Ni  Ni20  1  0.66561885  0.00085428  0.33394052  1
  Ni  Ni21  1  0.66756456  0.33231636  0.99934851  1
  Ni  Ni22  1  0.83417453  0.49746503  0.16750007  1
  Ni  Ni23  1  0.66772055  0.33246831  0.33394478  1
  Ni  Ni24  1  0.66478431  0.66666259  0.99808860  1
  Cr  Cr25  1  0.83239689  0.83416655  0.16752896  1
  Ni  Ni26  1  0.66665223  0.66666182  0.33501938  1
  Ni  Ni27  1  0.16681750  0.16666696  0.50014056  1
  Ni  Ni28  1  0.99985837  0.99997662  0.66689013  1
  Ni  Ni29  1  0.16666303  0.16667090  0.83340868  1
  Ni  Ni30  1  0.16598086  0.49913274  0.49890903  1
  Ni  Ni31  1  0.99981478  0.33340081  0.66689368  1
  Ni  Ni32  1  0.16683557  0.49827963  0.83359583  1
  Ni  Ni33  1  0.16563331  0.83419731  0.49890322  1
  Ni  Ni34  1  0.99831787  0.66662203  0.66650862  1
  Ni  Ni35  1  0.16650162  0.83505819  0.83358936  1
  Ni  Ni36  1  0.49981167  0.16683701  0.49995635  1
  Ni  Ni37  1  0.33336771  0.00164519  0.66670210  1
  Ni  Ni38  1  0.49981268  0.16683661  0.83336207  1
  Ni  Ni39  1  0.50086292  0.49917414  0.49929022  1
  Ni  Ni40  1  0.33332540  0.33164047  0.66670095  1
  Ni  Ni41  1  0.50086284  0.49933010  0.83426064  1
  Ni  Ni42  1  0.50104387  0.83398243  0.49870877  1
  Cr  Cr43  1  0.33318298  0.66669876  0.66687802  1
  Ni  Ni44  1  0.50103925  0.83382573  0.83483552  1
  Ni  Ni45  1  0.83336681  0.16649222  0.49971805  1
  Ni  Ni46  1  0.66677265  0.00014779  0.66670216  1
  Ni  Ni47  1  0.83351977  0.16650087  0.83382426  1
  Ni  Ni48  1  0.83315369  0.50035674  0.49976392  1
  Ni  Ni49  1  0.66685834  0.33318148  0.66670101  1
  Ni  Ni50  1  0.83228676  0.49949230  0.83272917  1
  Ni  Ni51  1  0.83332452  0.83314522  0.50033439  1
  Ni  Ni52  1  0.66853172  0.66666499  0.66689334  1
  Ni  Ni53  1  0.83245668  0.83400458  0.83216103  1
" 