6581,Ni9Cr91_12,-237.086100471705, 168.902263609027,Ni9Cr91,"# generated using pymatgen
 data_Cr2Ni25
_symmetry_space_group_name_H-M   'P 1'
_cell_length_a   7.46769491
_cell_length_b   7.46769491
_cell_length_c   10.56091542
_cell_angle_alpha   90.00000000
_cell_angle_beta   90.00000000
_cell_angle_gamma   90.00000000
_symmetry_Int_Tables_number   1
_chemical_formula_structural   Cr2Ni25
_chemical_formula_sum   'Cr4 Ni50'
_cell_volume   588.94494399
_cell_formula_units_Z   2
loop_
 _symmetry_equiv_pos_site_id
 _symmetry_equiv_pos_as_xyz
  1  'x, y, z'
loop_
 _atom_site_type_symbol
 _atom_site_label
 _atom_site_symmetry_multiplicity
 _atom_site_fract_x
 _atom_site_fract_y
 _atom_site_fract_z
 _atom_site_occupancy
  Ni  Ni0  1  0.00016466  0.99990647  0.99978935  1
  Ni  Ni1  1  0.16673413  0.16689861  0.16639540  1
  Ni  Ni2  1  0.00098054  0.00091464  0.33271339  1
  Ni  Ni3  1  0.99974906  0.33318616  0.00014149  1
  Ni  Ni4  1  0.16672866  0.49959325  0.16605267  1
  Ni  Ni5  1  0.99898518  0.33226978  0.33221265  1
  Ni  Ni6  1  -0.00003843  0.66680289  0.99980597  1
  Ni  Ni7  1  0.16653114  0.83333894  0.16712441  1
  Ni  Ni8  1  0.99991102  0.66675261  0.33145803  1
  Ni  Ni9  1  0.33330633  0.99971523  0.00015771  1
  Ni  Ni10  1  0.49994943  0.16679448  0.16638527  1
  Ni  Ni11  1  0.33247787  0.00074051  0.33238266  1
  Ni  Ni12  1  0.33357882  0.33318025  0.99980990  1
  Ni  Ni13  1  0.49974389  0.49954684  0.16674457  1
  Ni  Ni14  1  0.33440084  0.33223713  0.33251855  1
  Ni  Ni15  1  0.33350637  0.66695585  0.00014766  1
  Ni  Ni16  1  0.50011386  0.83354219  0.16636439  1
  Ni  Ni17  1  0.33351630  0.66686195  0.33117112  1
  Ni  Ni18  1  0.66638905  0.99994796  0.00014838  1
  Ni  Ni19  1  0.83320707  0.16660012  0.16639169  1
  Ni  Ni20  1  0.66638128  0.00180682  0.33104016  1
  Ni  Ni21  1  0.66657751  0.33338510  0.99979063  1
  Ni  Ni22  1  0.83337118  0.49974747  0.16672298  1
  Ni  Ni23  1  0.66652964  0.33326514  0.33381127  1
  Ni  Ni24  1  0.66638126  0.66653391  0.00016142  1
  Ni  Ni25  1  0.83322397  0.83354748  0.16635425  1
  Ni  Ni26  1  0.66633507  0.66468731  0.33113118  1
  Ni  Ni27  1  0.16767564  0.16483979  0.49896785  1
  Ni  Ni28  1  0.00100904  0.99939133  0.66734229  1
  Ni  Ni29  1  0.16768260  0.16591933  0.83455700  1
  Cr  Cr30  1  0.16796387  0.50142206  0.49877780  1
  Cr  Cr31  1  0.99871300  0.33213968  0.66763746  1
  Ni  Ni32  1  0.16766098  0.50052723  0.83488479  1
  Ni  Ni33  1  0.16662964  0.83512609  0.50008342  1
  Ni  Ni34  1  -0.00002005  0.66808106  0.66857091  1
  Ni  Ni35  1  0.16664397  0.83338917  0.83268211  1
  Ni  Ni36  1  0.49996856  0.16798975  0.50008056  1
  Ni  Ni37  1  0.33251026  0.00074976  0.66735211  1
  Ni  Ni38  1  0.49997691  0.16668768  0.83338244  1
  Ni  Ni39  1  0.50135764  0.49812044  0.50009247  1
  Ni  Ni40  1  0.33569683  0.33227070  0.66750983  1
  Ni  Ni41  1  0.49979396  0.49966191  0.83307223  1
  Cr  Cr42  1  0.49872716  0.83315760  0.49992148  1
  Ni  Ni43  1  0.33354845  0.66688203  0.66855872  1
  Ni  Ni44  1  0.50011813  0.83354392  0.83358805  1
  Ni  Ni45  1  0.83223631  0.16695476  0.49895500  1
  Ni  Ni46  1  0.66640544  0.00181850  0.66867288  1
  Ni  Ni47  1  0.83229883  0.16567901  0.83450185  1
  Ni  Ni48  1  0.83104224  0.49913900  0.49893854  1
  Ni  Ni49  1  0.66498382  0.33327912  0.66625378  1
  Ni  Ni50  1  0.83239024  0.50071225  0.83424950  1
  Cr  Cr51  1  0.83444415  0.83312838  0.50009549  1
  Ni  Ni52  1  0.66635347  0.66471478  0.66860187  1
  Ni  Ni53  1  0.83311283  0.83357518  0.83340208  1
" 