961,Ni9Cr91_10,-237.111895266684, 170.061523498208,Ni9Cr91,"# generated using pymatgen
 data_Cr2Ni25
_symmetry_space_group_name_H-M   'P 1'
_cell_length_a   7.46971562
_cell_length_b   7.46971562
_cell_length_c   10.56377314
_cell_angle_alpha   90.00000000
_cell_angle_beta   90.00000000
_cell_angle_gamma   90.00000000
_symmetry_Int_Tables_number   1
_chemical_formula_structural   Cr2Ni25
_chemical_formula_sum   'Cr4 Ni50'
_cell_volume   589.42316814
_cell_formula_units_Z   2
loop_
 _symmetry_equiv_pos_site_id
 _symmetry_equiv_pos_as_xyz
  1  'x, y, z'
loop_
 _atom_site_type_symbol
 _atom_site_label
 _atom_site_symmetry_multiplicity
 _atom_site_fract_x
 _atom_site_fract_y
 _atom_site_fract_z
 _atom_site_occupancy
  Ni  Ni0  1  -0.00017835  0.99960183  0.99959354  1
  Ni  Ni1  1  0.16621216  0.16485583  0.16665992  1
  Ni  Ni2  1  0.00083226  0.99880436  0.33236696  1
  Ni  Ni3  1  -0.00017615  0.33177898  0.99959592  1
  Cr  Cr4  1  0.16646876  0.50000266  0.16609818  1
  Ni  Ni5  1  -0.00017811  0.33337445  0.33338290  1
  Ni  Ni6  1  0.99981538  0.66808448  -0.00004312  1
  Ni  Ni7  1  0.16638809  0.83484328  0.16648791  1
  Ni  Ni8  1  0.99880452  0.66728460  0.33403688  1
  Ni  Ni9  1  0.33288233  0.99977749  -0.00000573  1
  Ni  Ni10  1  0.50022332  0.16640460  0.16666027  1
  Ni  Ni11  1  0.33288304  -0.00000633  0.33321016  1
  Ni  Ni12  1  0.33390367  0.33262311  0.99874653  1
  Ni  Ni13  1  0.50178077  0.49977798  0.16631496  1
  Ni  Ni14  1  0.33390141  0.33219344  0.33422659  1
  Ni  Ni15  1  0.33373552  0.66706470  0.99857339  1
  Ni  Ni16  1  0.50005425  0.83328130  0.16648833  1
  Ni  Ni17  1  0.33373107  0.66727810  0.33417231  1
  Ni  Ni18  1  0.66676032  0.99977181  0.99953641  1
  Ni  Ni19  1  0.83302845  0.16657525  0.16612411  1
  Ni  Ni20  1  0.66574768  0.99897431  0.33242166  1
  Ni  Ni21  1  0.66573966  0.33263063  0.00078319  1
  Ni  Ni22  1  0.83147269  0.49960187  0.16685083  1
  Ni  Ni23  1  0.66574133  0.33422245  0.33219450  1
  Ni  Ni24  1  0.66591402  0.66706409  0.00061347  1
  Ni  Ni25  1  0.83302160  0.83328750  0.16648776  1
  Ni  Ni26  1  0.66693011  0.66626648  0.33338323  1
  Ni  Ni27  1  0.16789737  0.16675710  0.49987673  1
  Ni  Ni28  1  0.00040367  0.00071599  0.66750704  1
  Ni  Ni29  1  0.16617876  0.16657447  0.83292772  1
  Ni  Ni30  1  0.16720004  0.49915626  0.49939146  1
  Ni  Ni31  1  0.00141730  0.33146236  0.66648632  1
  Ni  Ni32  1  0.16892520  0.49897181  0.83375745  1
  Ni  Ni33  1  0.16736788  0.83354882  0.49885829  1
  Cr  Cr34  1  0.00042057  0.66729603  0.66547516  1
  Ni  Ni35  1  0.16736948  0.83391666  0.83411986  1
  Ni  Ni36  1  0.49813272  0.16658824  0.49981948  1
  Ni  Ni37  1  0.33328143  0.00017679  0.66625917  1
  Ni  Ni38  1  0.49985861  0.16640540  0.83298442  1
  Ni  Ni39  1  0.49968805  0.50017653  0.50004822  1
  Ni  Ni40  1  0.33328903  0.33302094  0.66648799  1
  Ni  Ni41  1  0.49795936  0.49999339  0.83310083  1
  Ni  Ni42  1  0.49968795  0.83269910  0.50004833  1
  Ni  Ni43  1  0.33484699  0.66626606  0.66671696  1
  Ni  Ni44  1  0.49968772  0.83306586  0.83292834  1
  Cr  Cr45  1  0.83317958  0.16651031  0.50042303  1
  Ni  Ni46  1  0.66577810  0.99915533  0.66750782  1
  Ni  Ni47  1  0.83342719  0.16484696  0.83311839  1
  Ni  Ni48  1  0.83257596  0.50070646  0.49866535  1
  Ni  Ni49  1  0.66475810  0.33302744  0.66648737  1
  Cr  Cr50  1  0.83255037  0.49880972  0.83395553  1
  Ni  Ni51  1  0.83240607  0.83199384  0.49920065  1
  Ni  Ni52  1  0.66422256  0.66728164  0.66546796  1
  Ni  Ni53  1  0.83240638  0.83581347  0.83377527  1
" 