1329,Ni9Cr91_1,-237.089912746092, 168.958127375852,Ni9Cr91,"# generated using pymatgen
 data_Cr2Ni25
_symmetry_space_group_name_H-M   'P 1'
_cell_length_a   7.46908848
_cell_length_b   7.46908848
_cell_length_c   10.56288622
_cell_angle_alpha   90.00000000
_cell_angle_beta   90.00000000
_cell_angle_gamma   90.00000000
_symmetry_Int_Tables_number   1
_chemical_formula_structural   Cr2Ni25
_chemical_formula_sum   'Cr4 Ni50'
_cell_volume   589.27471944
_cell_formula_units_Z   2
loop_
 _symmetry_equiv_pos_site_id
 _symmetry_equiv_pos_as_xyz
  1  'x, y, z'
loop_
 _atom_site_type_symbol
 _atom_site_label
 _atom_site_symmetry_multiplicity
 _atom_site_fract_x
 _atom_site_fract_y
 _atom_site_fract_z
 _atom_site_occupancy
  Ni  Ni0  1  -0.00002253  -0.00002279  0.99938943  1
  Ni  Ni1  1  0.16565191  0.16599928  0.16541394  1
  Ni  Ni2  1  0.99978337  0.99978337  0.33325662  1
  Ni  Ni3  1  0.00032881  0.33154602  0.00150910  1
  Ni  Ni4  1  0.16547496  0.50068459  0.16561124  1
  Ni  Ni5  1  0.99834332  0.33319670  0.33343444  1
  Ni  Ni6  1  -0.00002349  0.66806648  0.00150744  1
  Ni  Ni7  1  0.16671111  0.83290583  0.16646894  1
  Ni  Ni8  1  0.99978349  0.66660997  0.33325667  1
  Ni  Ni9  1  0.33296194  0.00032999  0.99962707  1
  Ni  Ni10  1  0.50068460  0.16582225  0.16559224  1
  Ni  Ni11  1  0.33319336  0.99834344  0.33343466  1
  Ni  Ni12  1  0.33402159  0.33260726  0.00044789  1
  Ni  Ni13  1  0.50068481  0.50068465  0.16523555  1
  Cr  Cr14  1  0.33319820  0.33319798  0.33322221  1
  Ni  Ni15  1  0.33402170  0.66665286  0.00044795  1
  Ni  Ni16  1  0.49962546  0.83308303  0.16664739  1
  Ni  Ni17  1  0.33319667  0.66804675  0.33343447  1
  Ni  Ni18  1  0.66665093  -0.00002262  0.99962727  1
  Ni  Ni19  1  0.83325354  0.16705841  0.16646941  1
  Ni  Ni20  1  0.66661355  0.99978327  0.33325651  1
  Ni  Ni21  1  0.66523984  0.33260906  0.00044638  1
  Ni  Ni22  1  0.83343055  0.49962530  0.16666696  1
  Ni  Ni23  1  0.66804998  0.33320004  0.33343471  1
  Ni  Ni24  1  0.66559312  0.66700398  0.00044571  1
  Ni  Ni25  1  0.83325339  0.83290661  0.16623187  1
  Ni  Ni26  1  0.66661009  0.66660671  0.33325659  1
  Ni  Ni27  1  0.16482580  0.16517309  0.50015907  1
  Ni  Ni28  1  0.99978325  0.99978332  0.66694390  1
  Ni  Ni29  1  0.16584376  0.16380899  0.83401715  1
  Ni  Ni30  1  0.16464895  0.50151025  0.49996189  1
  Ni  Ni31  1  0.99833688  0.33154530  0.66464629  1
  Cr  Cr32  1  0.16700052  0.50069604  0.83402455  1
  Ni  Ni33  1  0.16694281  0.83290625  0.50016111  1
  Ni  Ni34  1  0.99978137  0.66826107  0.66482532  1
  Ni  Ni35  1  0.16690551  0.83509541  0.83295964  1
  Ni  Ni36  1  0.50151004  0.16499713  0.49998184  1
  Ni  Ni37  1  0.33296197  0.99833812  0.66652866  1
  Ni  Ni38  1  0.50068669  0.16543282  0.83401669  1
  Ni  Ni39  1  0.50151119  0.50151035  0.50033749  1
  Cr  Cr40  1  0.33402578  0.33258394  0.66589659  1
  Ni  Ni41  1  0.50068901  0.50068698  0.83401710  1
  Ni  Ni42  1  0.49939354  0.83308308  0.49998323  1
  Ni  Ni43  1  0.33402209  0.66864352  0.66570760  1
  Ni  Ni44  1  0.49962539  0.83347105  0.83295971  1
  Ni  Ni45  1  0.83325340  0.16729061  0.50016164  1
  Ni  Ni46  1  0.66684473  0.99978361  0.66670625  1
  Ni  Ni47  1  0.83305911  0.16487429  0.83295962  1
  Ni  Ni48  1  0.83343000  0.49939359  0.49996351  1
  Ni  Ni49  1  0.66723231  0.33260881  0.66570929  1
  Cr  Cr50  1  0.83189386  0.49964136  0.83297543  1
  Ni  Ni51  1  0.83325358  0.83290628  0.50016113  1
  Ni  Ni52  1  0.66578722  0.66719795  0.66588764  1
  Ni  Ni53  1  0.83305943  0.83509086  0.83319749  1
" 