5498,Ni9Cr91_0,-236.988263952076, 167.813733434415,Ni9Cr91,"# generated using pymatgen
 data_Cr2Ni25
_symmetry_space_group_name_H-M   'P 1'
_cell_length_a   7.46912150
_cell_length_b   7.46912150
_cell_length_c   10.56293292
_cell_angle_alpha   90.00000000
_cell_angle_beta   90.00000000
_cell_angle_gamma   90.00000000
_symmetry_Int_Tables_number   1
_chemical_formula_structural   Cr2Ni25
_chemical_formula_sum   'Cr4 Ni50'
_cell_volume   589.28253527
_cell_formula_units_Z   2
loop_
 _symmetry_equiv_pos_site_id
 _symmetry_equiv_pos_as_xyz
  1  'x, y, z'
loop_
 _atom_site_type_symbol
 _atom_site_label
 _atom_site_symmetry_multiplicity
 _atom_site_fract_x
 _atom_site_fract_y
 _atom_site_fract_z
 _atom_site_occupancy
  Ni  Ni0  1  -0.00011120  0.00022191  -0.00007446  1
  Ni  Ni1  1  0.16668101  0.16656090  0.16659374  1
  Ni  Ni2  1  -0.00013714  0.00018424  0.33316921  1
  Ni  Ni3  1  0.99971417  0.33300876  0.99971496  1
  Ni  Ni4  1  0.16651551  0.49991441  0.16635411  1
  Ni  Ni5  1  0.99969002  0.33303173  0.33337170  1
  Ni  Ni6  1  0.00135255  0.66635798  0.99946178  1
  Ni  Ni7  1  0.16651482  0.83311100  0.16635980  1
  Ni  Ni8  1  0.99969549  0.66636610  0.33337937  1
  Ni  Ni9  1  0.33300800  0.00005356  0.99969759  1
  Ni  Ni10  1  0.49979209  0.16641195  0.16635675  1
  Ni  Ni11  1  0.33303010  0.00002709  0.33339266  1
  Ni  Ni12  1  0.33317901  0.33317592  0.99947221  1
  Ni  Ni13  1  0.49856251  0.49868231  0.16755296  1
  Ni  Ni14  1  0.33319952  0.33318808  0.33361015  1
  Ni  Ni15  1  0.33173890  0.66635212  -0.00007223  1
  Ni  Ni16  1  0.49879612  0.83444745  0.16748664  1
  Ni  Ni17  1  0.33336425  0.66636066  0.33292392  1
  Ni  Ni18  1  0.66668500  0.00151354  0.99947598  1
  Ni  Ni19  1  0.83311119  0.16641231  0.16635798  1
  Ni  Ni20  1  0.66668734  0.00002839  0.33338812  1
  Ni  Ni21  1  0.66669066  0.33159582  -0.00005488  1
  Ni  Ni22  1  0.83451453  0.49884894  0.16755810  1
  Ni  Ni23  1  0.66669410  0.33337212  0.33290597  1
  Cr  Cr24  1  0.66654380  0.66540386  0.00044660  1
  Ni  Ni25  1  0.83428217  0.83428060  0.16749224  1
  Ni  Ni26  1  0.66652707  0.66619263  0.33357685  1
  Ni  Ni27  1  0.16661678  0.16889219  0.49798170  1
  Cr  Cr28  1  0.99899282  0.00039637  0.66611484  1
  Ni  Ni29  1  0.16662123  0.16876704  0.83488036  1
  Ni  Ni30  1  0.16548527  0.49890719  0.49929456  1
  Ni  Ni31  1  0.99966088  0.33470871  0.66650071  1
  Ni  Ni32  1  0.16547175  0.49883288  0.83393100  1
  Ni  Ni33  1  0.16536448  0.83182783  0.49675766  1
  Ni  Ni34  1  0.99793003  0.66468367  0.66673824  1
  Ni  Ni35  1  0.16535174  0.83201715  0.83634371  1
  Ni  Ni36  1  0.50100389  0.16752109  0.49929104  1
  Cr  Cr37  1  0.33415188  0.00186182  0.66611312  1
  Ni  Ni38  1  0.50085233  0.16749937  0.83387154  1
  Ni  Ni39  1  0.50080081  0.49879024  0.49908699  1
  Ni  Ni40  1  0.33321280  0.33333325  0.66650428  1
  Ni  Ni41  1  0.49978872  0.49775563  0.83307368  1
  Ni  Ni42  1  0.50207299  0.83330663  0.49811059  1
  Cr  Cr43  1  0.33315604  0.66524833  0.66676157  1
  Ni  Ni44  1  0.50101747  0.83431800  0.83403982  1
  Ni  Ni45  1  0.83197598  0.16751394  0.49905902  1
  Ni  Ni46  1  0.66675736  0.00005317  0.66671979  1
  Ni  Ni47  1  0.83212297  0.16749402  0.83410624  1
  Ni  Ni48  1  0.83327944  0.49990345  0.50013035  1
  Ni  Ni49  1  0.66671073  0.33338735  0.66672758  1
  Ni  Ni50  1  0.83432040  0.49886904  0.83202505  1
  Ni  Ni51  1  0.83213309  0.83217696  0.49929521  1
  Ni  Ni52  1  0.66813327  0.66614784  0.66627839  1
  Ni  Ni53  1  0.83319641  0.83318561  0.83286829  1
" 