2481,Ni9Cr91_11,-237.037435873739, 168.576034948105,Ni9Cr91,"# generated using pymatgen
 data_Cr2Ni25
_symmetry_space_group_name_H-M   'P 1'
_cell_length_a   7.46882476
_cell_length_b   7.46882476
_cell_length_c   10.56251328
_cell_angle_alpha   90.00000000
_cell_angle_beta   90.00000000
_cell_angle_gamma   90.00000000
_symmetry_Int_Tables_number   1
_chemical_formula_structural   Cr2Ni25
_chemical_formula_sum   'Cr4 Ni50'
_cell_volume   589.21230461
_cell_formula_units_Z   2
loop_
 _symmetry_equiv_pos_site_id
 _symmetry_equiv_pos_as_xyz
  1  'x, y, z'
loop_
 _atom_site_type_symbol
 _atom_site_label
 _atom_site_symmetry_multiplicity
 _atom_site_fract_x
 _atom_site_fract_y
 _atom_site_fract_z
 _atom_site_occupancy
  Ni  Ni0  1  0.99866288  0.00089469  0.99934342  1
  Ni  Ni1  1  0.16755780  0.16730317  0.16561355  1
  Ni  Ni2  1  0.99877014  0.99908022  0.33409724  1
  Ni  Ni3  1  -0.00002842  0.33318955  0.99977756  1
  Ni  Ni4  1  0.16742533  0.49913548  0.16579878  1
  Cr  Cr5  1  0.00112519  0.33208594  0.33206916  1
  Ni  Ni6  1  0.99885017  0.66558322  0.99936204  1
  Cr  Cr7  1  0.16555301  0.83372064  0.16631552  1
  Ni  Ni8  1  -0.00010711  0.66832053  0.33303242  1
  Ni  Ni9  1  0.33336793  0.00206763  0.99778867  1
  Ni  Ni10  1  0.49991373  0.16842674  0.16671577  1
  Ni  Ni11  1  0.33338514  0.00191710  0.33509779  1
  Ni  Ni12  1  0.33317561  0.33333544  0.00046658  1
  Ni  Ni13  1  0.50008358  0.49798587  0.16693167  1
  Ni  Ni14  1  0.33495900  0.33328500  0.33304092  1
  Ni  Ni15  1  0.33336360  0.66427196  0.99785065  1
  Cr  Cr16  1  0.50081130  0.83374693  0.16610129  1
  Ni  Ni17  1  0.33340719  0.66448875  0.33528491  1
  Ni  Ni18  1  0.66762927  0.00071311  0.99910266  1
  Ni  Ni19  1  0.83214092  0.16585490  0.16580667  1
  Ni  Ni20  1  0.66747323  0.00064772  0.33409016  1
  Ni  Ni21  1  0.66648214  0.33318814  0.00021212  1
  Ni  Ni22  1  0.83214015  0.50056975  0.16536899  1
  Ni  Ni23  1  0.66371985  0.33213984  0.33216859  1
  Ni  Ni24  1  0.66744682  0.66575322  0.99913450  1
  Ni  Ni25  1  0.83329368  0.83321515  0.16692248  1
  Ni  Ni26  1  0.66635452  0.66681449  0.33303521  1
  Ni  Ni27  1  0.16765570  0.16540963  0.50062990  1
  Ni  Ni28  1  0.99977829  0.99978210  0.66615968  1
  Ni  Ni29  1  0.16655966  0.16650563  0.83342954  1
  Ni  Ni30  1  0.16915126  0.50083142  0.50064353  1
  Ni  Ni31  1  0.00117529  0.33206245  0.66781286  1
  Ni  Ni32  1  0.16638548  0.49977617  0.83319240  1
  Ni  Ni33  1  0.16668296  0.83342353  0.49973035  1
  Ni  Ni34  1  0.00095975  0.66776508  0.66732055  1
  Ni  Ni35  1  0.16657860  0.83336304  0.83321586  1
  Ni  Ni36  1  0.49982115  0.16656382  0.49951307  1
  Ni  Ni37  1  0.33335805  0.99976918  0.66662215  1
  Ni  Ni38  1  0.49987766  0.16665379  0.83343611  1
  Ni  Ni39  1  0.49828404  0.49967090  0.49951443  1
  Ni  Ni40  1  0.33320579  0.33330400  0.66615645  1
  Ni  Ni41  1  0.50006348  0.49962329  0.83318566  1
  Ni  Ni42  1  0.49967573  0.83340043  0.49997147  1
  Ni  Ni43  1  0.33337054  0.66656615  0.66637741  1
  Ni  Ni44  1  0.49970825  0.83336707  0.83321889  1
  Ni  Ni45  1  0.83213838  0.16394683  0.50087810  1
  Ni  Ni46  1  0.66651454  0.99961933  0.66637366  1
  Ni  Ni47  1  0.83319805  0.16685957  0.83295878  1
  Cr  Cr48  1  0.83201583  0.50002450  0.50172823  1
  Ni  Ni49  1  0.66525364  0.33206140  0.66738459  1
  Ni  Ni50  1  0.83319953  0.49960342  0.83339590  1
  Ni  Ni51  1  0.83330163  0.83482212  0.49927684  1
  Ni  Ni52  1  0.66535266  0.66788413  0.66749951  1
  Ni  Ni53  1  0.83335297  0.83318139  0.83342026  1
" 