4439,Ni9Cr91_14,-237.100825855733, 170.090954015076,Ni9Cr91,"# generated using pymatgen
 data_Cr2Ni25
_symmetry_space_group_name_H-M   'P 1'
_cell_length_a   7.46849385
_cell_length_b   7.46849385
_cell_length_c   10.56204529
_cell_angle_alpha   90.00000000
_cell_angle_beta   90.00000000
_cell_angle_gamma   90.00000000
_symmetry_Int_Tables_number   1
_chemical_formula_structural   Cr2Ni25
_chemical_formula_sum   'Cr4 Ni50'
_cell_volume   589.13399066
_cell_formula_units_Z   2
loop_
 _symmetry_equiv_pos_site_id
 _symmetry_equiv_pos_as_xyz
  1  'x, y, z'
loop_
 _atom_site_type_symbol
 _atom_site_label
 _atom_site_symmetry_multiplicity
 _atom_site_fract_x
 _atom_site_fract_y
 _atom_site_fract_z
 _atom_site_occupancy
  Ni  Ni0  1  0.00001118  -0.00009547  -0.00009548  1
  Ni  Ni1  1  0.16743158  0.16559914  0.16559858  1
  Ni  Ni2  1  0.00058553  0.99897011  0.33404401  1
  Ni  Ni3  1  0.00114530  0.33404383  0.99909603  1
  Ni  Ni4  1  0.16594225  0.50099900  0.16559903  1
  Ni  Ni5  1  0.99909849  0.33404471  0.33404473  1
  Ni  Ni6  1  0.99920258  0.66576064  0.00071191  1
  Ni  Ni7  1  0.16691305  0.83311101  0.16691421  1
  Ni  Ni8  1  0.99977738  0.66669507  0.33323690  1
  Ni  Ni9  1  0.33399108  0.00087572  0.00087532  1
  Ni  Ni10  1  0.49898540  0.16576201  0.16576199  1
  Ni  Ni11  1  0.33323648  0.99828986  0.33323683  1
  Ni  Ni12  1  0.33301889  0.33323573  0.99955873  1
  Ni  Ni13  1  0.50047629  0.50083627  0.16576225  1
  Cr  Cr14  1  0.33323529  0.33323520  0.33323669  1
  Ni  Ni15  1  0.33399117  0.66559797  0.00100138  1
  Ni  Ni16  1  0.49934295  0.83311099  0.16656952  1
  Ni  Ni17  1  0.33323635  0.66818362  0.33311092  1
  Ni  Ni18  1  0.66570757  0.99893278  0.99893317  1
  Cr  Cr19  1  0.83307436  0.16693460  0.16693403  1
  Ni  Ni20  1  0.66588738  0.99896842  0.33404434  1
  Ni  Ni21  1  0.66554516  0.33404403  0.99931447  1
  Ni  Ni22  1  0.83329105  0.50135596  0.16673263  1
  Ni  Ni23  1  0.66737579  0.33404501  0.33404502  1
  Ni  Ni24  1  0.66651589  0.66673276  0.99974027  1
  Ni  Ni25  1  0.83345364  0.83162203  0.16635074  1
  Ni  Ni26  1  0.66669574  0.66669647  0.33323698  1
  Ni  Ni27  1  0.16581737  0.16559968  0.50087378  1
  Ni  Ni28  1  0.99907730  0.00083815  0.66576064  1
  Ni  Ni29  1  0.16657068  0.16818668  0.83323677  1
  Ni  Ni30  1  0.16500695  0.50006423  0.50006478  1
  Ni  Ni31  1  0.00021210  0.33311097  0.66656948  1
  Ni  Ni32  1  0.16576050  0.49747582  0.83404593  1
  Ni  Ni33  1  0.16597835  0.83404576  0.49874968  1
  Ni  Ni34  1  0.99758393  0.66575982  0.66575992  1
  Cr  Cr35  1  0.16597375  0.83383384  0.83383384  1
  Ni  Ni36  1  0.50060113  0.16576230  0.50071064  1
  Ni  Ni37  1  0.33399184  0.00249452  0.66559673  1
  Ni  Ni38  1  0.50002798  0.16669569  0.83323674  1
  Ni  Ni39  1  0.50141118  0.49990196  0.49990195  1
  Ni  Ni40  1  0.33301882  0.33161776  0.66691413  1
  Ni  Ni41  1  0.50083774  0.49896831  0.83404570  1
  Ni  Ni42  1  0.50027778  0.83404583  0.49909429  1
  Cr  Cr43  1  0.33399679  0.66560823  0.66560735  1
  Ni  Ni44  1  0.50232891  0.83404607  0.83404602  1
  Ni  Ni45  1  0.83329111  0.16673300  0.49986594  1
  Ni  Ni46  1  0.66664087  0.99986598  0.66673247  1
  Ni  Ni47  1  0.83311098  0.16669694  0.83311089  1
  Ni  Ni48  1  0.83329105  0.49974067  0.49974013  1
  Ni  Ni49  1  0.66647846  0.33311091  0.66635082  1
  Ni  Ni50  1  0.83311089  0.49977664  0.83323675  1
  Ni  Ni51  1  0.83345340  0.83323579  0.50012184  1
  Ni  Ni52  1  0.66813402  0.66673277  0.66673240  1
  Ni  Ni53  1  0.83161990  0.83323582  0.83323676  1
" 