4220,Ni9Cr91_5,-237.07358667308, 169.481509264373,Ni9Cr91,"# generated using pymatgen
 data_Cr2Ni25
_symmetry_space_group_name_H-M   'P 1'
_cell_length_a   7.47007310
_cell_length_b   7.47007310
_cell_length_c   10.56427869
_cell_angle_alpha   90.00000000
_cell_angle_beta   90.00000000
_cell_angle_gamma   90.00000000
_symmetry_Int_Tables_number   1
_chemical_formula_structural   Cr2Ni25
_chemical_formula_sum   'Cr4 Ni50'
_cell_volume   589.50779648
_cell_formula_units_Z   2
loop_
 _symmetry_equiv_pos_site_id
 _symmetry_equiv_pos_as_xyz
  1  'x, y, z'
loop_
 _atom_site_type_symbol
 _atom_site_label
 _atom_site_symmetry_multiplicity
 _atom_site_fract_x
 _atom_site_fract_y
 _atom_site_fract_z
 _atom_site_occupancy
  Ni  Ni0  1  0.00078473  0.99873846  0.00056847  1
  Ni  Ni1  1  0.16640937  0.16642097  0.16641049  1
  Ni  Ni2  1  0.99817593  -0.00020224  0.33313106  1
  Cr  Cr3  1  0.99941487  0.33350884  0.99921042  1
  Ni  Ni4  1  0.16740676  0.50061794  0.16739584  1
  Ni  Ni5  1  0.99965840  0.33346991  0.33348480  1
  Ni  Ni6  1  0.00061958  0.66736684  0.00075250  1
  Ni  Ni7  1  0.16526826  0.83235533  0.16525832  1
  Ni  Ni8  1  0.99966803  0.66612527  0.33277802  1
  Ni  Ni9  1  0.33321721  0.99941016  0.99939350  1
  Ni  Ni10  1  0.50062135  0.16741045  0.16542445  1
  Cr  Cr11  1  0.33349842  0.99978953  0.33313150  1
  Ni  Ni12  1  0.33471330  0.33296726  -0.00003200  1
  Ni  Ni13  1  0.49963047  0.49963891  0.16641184  1
  Ni  Ni14  1  0.33287917  0.33480555  0.33296343  1
  Ni  Ni15  1  0.33305291  0.66701424  0.99957921  1
  Ni  Ni16  1  0.50078552  0.83234399  0.16547585  1
  Ni  Ni17  1  0.33287746  0.66479754  0.33329856  1
  Ni  Ni18  1  0.66539326  0.00039859  0.00073369  1
  Ni  Ni19  1  0.83236312  0.16526801  0.16722835  1
  Ni  Ni20  1  0.66819208  -0.00020171  0.33313064  1
  Ni  Ni21  1  0.66504195  0.33313019  0.99957882  1
  Ni  Ni22  1  0.83235419  0.50078173  0.16700886  1
  Ni  Ni23  1  0.66685536  0.33330483  0.33296352  1
  Ni  Ni24  1  0.66572060  0.66586021  0.00039973  1
  Ni  Ni25  1  0.83334108  0.83334300  0.16659632  1
  Ni  Ni26  1  0.66684634  0.66628901  0.33329794  1
  Ni  Ni27  1  0.16543356  0.16719606  0.50083461  1
  Ni  Ni28  1  0.00078492  0.00241646  0.66569332  1
  Ni  Ni29  1  0.16715705  0.16581946  0.83214513  1
  Ni  Ni30  1  0.16740647  0.49906785  0.49886623  1
  Ni  Ni31  1  0.99962996  0.33144413  0.66649774  1
  Ni  Ni32  1  0.16816156  0.49966534  0.83313274  1
  Ni  Ni33  1  0.16624698  0.83313124  0.50001729  1
  Cr  Cr34  1  0.00040291  0.66529687  0.66606639  1
  Ni  Ni35  1  0.16866393  0.83390885  0.83411933  1
  Ni  Ni36  1  0.50061974  0.16720675  0.50061660  1
  Ni  Ni37  1  0.33321711  0.99976041  0.66686752  1
  Ni  Ni38  1  0.49966916  0.16680677  0.83335227  1
  Ni  Ni39  1  0.49962968  0.50004623  0.49985080  1
  Ni  Ni40  1  0.33305177  0.33279318  0.66646108  1
  Ni  Ni41  1  0.49965880  0.49966727  0.83313089  1
  Ni  Ni42  1  0.50078557  0.83214065  0.50100639  1
  Ni  Ni43  1  0.33471949  0.66683968  0.66651508  1
  Ni  Ni44  1  0.49815998  0.83291777  0.83290922  1
  Ni  Ni45  1  0.83334139  0.16604471  0.50001743  1
  Ni  Ni46  1  0.66539074  0.00075110  0.66552588  1
  Ni  Ni47  1  0.83256533  0.16731685  0.83214217  1
  Ni  Ni48  1  0.83235243  0.49922760  0.49925011  1
  Ni  Ni49  1  0.66671100  0.33295554  0.66685030  1
  Ni  Ni50  1  0.83156780  0.49815998  0.83313217  1
  Ni  Ni51  1  0.83236124  0.83411951  0.49867756  1
  Ni  Ni52  1  0.66404756  0.66568377  0.66569450  1
  Cr  Cr53  1  0.83253877  0.83392774  0.83411773  1
" 