7084,Ni9Cr91_18,-237.059499900029, 168.848968896016,Ni9Cr91,"# generated using pymatgen
 data_Cr2Ni25
_symmetry_space_group_name_H-M   'P 1'
_cell_length_a   7.46621849
_cell_length_b   7.46621849
_cell_length_c   10.55882745
_cell_angle_alpha   90.00000000
_cell_angle_beta   90.00000000
_cell_angle_gamma   90.00000000
_symmetry_Int_Tables_number   1
_chemical_formula_structural   Cr2Ni25
_chemical_formula_sum   'Cr4 Ni50'
_cell_volume   588.59569755
_cell_formula_units_Z   2
loop_
 _symmetry_equiv_pos_site_id
 _symmetry_equiv_pos_as_xyz
  1  'x, y, z'
loop_
 _atom_site_type_symbol
 _atom_site_label
 _atom_site_symmetry_multiplicity
 _atom_site_fract_x
 _atom_site_fract_y
 _atom_site_fract_z
 _atom_site_occupancy
  Ni  Ni0  1  0.00184876  0.99982275  0.00005552  1
  Ni  Ni1  1  0.16656464  0.16657555  0.16653450  1
  Ni  Ni2  1  0.00115969  0.99893244  0.33233166  1
  Ni  Ni3  1  0.00184217  0.33373859  0.00005552  1
  Ni  Ni4  1  0.16688313  0.50014837  0.16674049  1
  Ni  Ni5  1  0.00119268  0.33459117  0.33251647  1
  Ni  Ni6  1  0.00032133  0.66660441  0.00005552  1
  Ni  Ni7  1  0.16672541  0.83344511  0.16650723  1
  Ni  Ni8  1  0.00028012  0.66665600  0.33382102  1
  Ni  Ni9  1  0.33176440  0.99997866  0.00005552  1
  Ni  Ni10  1  0.49801777  0.16675220  0.16901143  1
  Ni  Ni11  1  0.33331532  0.99996525  0.33358118  1
  Ni  Ni12  1  0.33160433  0.33342705  0.00005552  1
  Ni  Ni13  1  0.49899641  0.50120078  0.16718600  1
  Ni  Ni14  1  0.33223967  0.33250282  0.33252285  1
  Ni  Ni15  1  0.33296681  0.66676216  0.00005552  1
  Ni  Ni16  1  0.49899703  0.83221858  0.16758370  1
  Ni  Ni17  1  0.33211475  0.66768458  0.33258644  1
  Cr  Cr18  1  0.66660596  0.99876305  0.00005552  1
  Ni  Ni19  1  0.83560178  0.16656621  0.16835506  1
  Ni  Ni20  1  0.66567730  0.99905803  0.33266154  1
  Cr  Cr21  1  0.66673026  0.33466399  0.00005552  1
  Ni  Ni22  1  0.83428455  0.50103421  0.16782576  1
  Ni  Ni23  1  0.66672291  0.33336832  0.33151098  1
  Ni  Ni24  1  0.66687936  0.66676137  0.00005552  1
  Ni  Ni25  1  0.83445464  0.83256090  0.16756709  1
  Ni  Ni26  1  0.66776744  0.66773734  0.33224399  1
  Ni  Ni27  1  0.16803259  0.16654400  0.50005552  1
  Ni  Ni28  1  0.00115969  0.99893244  0.66777939  1
  Ni  Ni29  1  0.16656464  0.16657555  0.83357654  1
  Ni  Ni30  1  0.16540500  0.50011565  0.50005552  1
  Ni  Ni31  1  0.00119268  0.33459117  0.66759458  1
  Ni  Ni32  1  0.16688313  0.50014837  0.83337056  1
  Ni  Ni33  1  0.16671987  0.83350695  0.50005552  1
  Ni  Ni34  1  0.00028012  0.66665600  0.66629002  1
  Ni  Ni35  1  0.16672541  0.83344511  0.83360382  1
  Ni  Ni36  1  0.49836220  0.16511018  0.50005552  1
  Ni  Ni37  1  0.33331532  0.99996525  0.66652987  1
  Ni  Ni38  1  0.49801777  0.16675220  0.83109962  1
  Cr  Cr39  1  0.50018064  0.50002976  0.50005552  1
  Ni  Ni40  1  0.33223967  0.33250282  0.66758820  1
  Ni  Ni41  1  0.49899641  0.50120078  0.83292505  1
  Ni  Ni42  1  0.49995583  0.83466204  0.50005552  1
  Ni  Ni43  1  0.33211475  0.66768458  0.66752461  1
  Ni  Ni44  1  0.49899703  0.83221858  0.83252735  1
  Cr  Cr45  1  0.83338341  0.16676992  0.50005552  1
  Ni  Ni46  1  0.66567730  0.99905803  0.66744951  1
  Ni  Ni47  1  0.83560178  0.16656621  0.83175599  1
  Ni  Ni48  1  0.83491819  0.50170728  0.50005552  1
  Ni  Ni49  1  0.66672291  0.33336832  0.66860007  1
  Ni  Ni50  1  0.83428455  0.50103421  0.83228529  1
  Ni  Ni51  1  0.83348672  0.83203477  0.50005552  1
  Ni  Ni52  1  0.66776744  0.66773734  0.66786706  1
  Ni  Ni53  1  0.83445464  0.83256090  0.83254396  1
" 