6594,Ni9Cr91_13,-237.159547027468, 170.280036281383,Ni9Cr91,"# generated using pymatgen
 data_Cr2Ni25
_symmetry_space_group_name_H-M   'P 1'
_cell_length_a   7.46610893
_cell_length_b   7.46610893
_cell_length_c   10.55867250
_cell_angle_alpha   90.00000000
_cell_angle_beta   90.00000000
_cell_angle_gamma   90.00000000
_symmetry_Int_Tables_number   1
_chemical_formula_structural   Cr2Ni25
_chemical_formula_sum   'Cr4 Ni50'
_cell_volume   588.56978481
_cell_formula_units_Z   2
loop_
 _symmetry_equiv_pos_site_id
 _symmetry_equiv_pos_as_xyz
  1  'x, y, z'
loop_
 _atom_site_type_symbol
 _atom_site_label
 _atom_site_symmetry_multiplicity
 _atom_site_fract_x
 _atom_site_fract_y
 _atom_site_fract_z
 _atom_site_occupancy
  Ni  Ni0  1  0.99931494  0.00118076  0.99897998  1
  Ni  Ni1  1  0.16688899  0.16818103  0.16660838  1
  Ni  Ni2  1  0.00028153  0.00212151  0.33354565  1
  Ni  Ni3  1  0.00029981  0.33339536  0.00019971  1
  Ni  Ni4  1  0.16690727  0.49854288  0.16680481  1
  Ni  Ni5  1  0.00039882  0.33336302  0.33333697  1
  Ni  Ni6  1  0.99934224  0.66560907  0.99945591  1
  Cr  Cr7  1  0.16676061  0.83344463  0.16705047  1
  Ni  Ni8  1  0.00160820  0.66472214  0.33335469  1
  Ni  Ni9  1  0.33419451  0.00103347  0.99896232  1
  Ni  Ni10  1  0.50009893  0.16712383  0.16681124  1
  Ni  Ni11  1  0.33413043  0.00112636  0.33454753  1
  Ni  Ni12  1  0.33303906  0.33339537  0.00019809  1
  Ni  Ni13  1  0.49929956  0.49881032  0.16584638  1
  Ni  Ni14  1  0.33302104  0.33337046  0.33314105  1
  Ni  Ni15  1  0.33416773  0.66575614  0.99946982  1
  Ni  Ni16  1  0.50050625  0.83429099  0.16604403  1
  Ni  Ni17  1  0.33265678  0.66569806  0.33431465  1
  Ni  Ni18  1  0.66669210  1.00006150  0.00057277  1
  Ni  Ni19  1  0.83321751  0.16696858  0.16703720  1
  Ni  Ni20  1  0.66577523  0.00234686  0.33220105  1
  Ni  Ni21  1  0.66683995  0.33339597  1.00001312  1
  Ni  Ni22  1  0.83403671  0.49893626  0.16605502  1
  Ni  Ni23  1  0.66677686  0.33190901  0.33376723  1
  Ni  Ni24  1  0.66669204  0.66672022  0.99984664  1
  Ni  Ni25  1  0.83294614  0.83428350  0.16568932  1
  Cr  Cr26  1  0.66564527  0.66568673  0.33251274  1
  Ni  Ni27  1  0.16692018  0.16687021  0.50008358  1
  Ni  Ni28  1  0.00248078  0.00116410  0.66761529  1
  Ni  Ni29  1  0.16690842  0.16685503  0.83347892  1
  Ni  Ni30  1  0.16692007  0.49992809  0.49970270  1
  Ni  Ni31  1  0.00047140  0.33342432  0.66664643  1
  Ni  Ni32  1  0.16689040  0.50000935  0.83367936  1
  Ni  Ni33  1  0.16830055  0.83340106  0.50025757  1
  Ni  Ni34  1  0.00117648  0.66556253  0.66743060  1
  Ni  Ni35  1  0.16674029  0.83332624  0.83287532  1
  Ni  Ni36  1  0.49913844  0.16804630  0.49915294  1
  Ni  Ni37  1  0.33177319  0.00020503  0.66664273  1
  Ni  Ni38  1  0.49927139  0.16795374  0.83421629  1
  Ni  Ni39  1  0.49912454  0.49875437  0.50110462  1
  Ni  Ni40  1  0.33294997  0.33341709  0.66684238  1
  Ni  Ni41  1  0.50006744  0.49970762  0.83325467  1
  Ni  Ni42  1  0.49676730  0.83339380  0.49987166  1
  Ni  Ni43  1  0.33321034  0.66654784  0.66642853  1
  Ni  Ni44  1  0.49905994  0.83250556  0.83427052  1
  Ni  Ni45  1  0.83412647  0.16931447  0.49913638  1
  Cr  Cr46  1  0.66560637  0.00105510  0.66746096  1
  Ni  Ni47  1  0.83406160  0.16783425  0.83401146  1
  Ni  Ni48  1  0.83414945  0.49749043  0.50111060  1
  Ni  Ni49  1  0.66677513  0.33487735  0.66641609  1
  Ni  Ni50  1  0.83324823  0.49985518  0.83303407  1
  Cr  Cr51  1  0.83556423  0.83339815  0.49989162  1
  Ni  Ni52  1  0.66578789  0.66451255  0.66779435  1
  Ni  Ni53  1  0.83436561  0.83251084  0.83461818  1
" 