4529,Ni9Cr91_3,-237.07239111614, 169.531350630547,Ni9Cr91,"# generated using pymatgen
 data_Cr2Ni25
_symmetry_space_group_name_H-M   'P 1'
_cell_length_a   7.46832955
_cell_length_b   7.46832955
_cell_length_c   10.56181294
_cell_angle_alpha   90.00000000
_cell_angle_beta   90.00000000
_cell_angle_gamma   90.00000000
_symmetry_Int_Tables_number   1
_chemical_formula_structural   Cr2Ni25
_chemical_formula_sum   'Cr4 Ni50'
_cell_volume   589.09511180
_cell_formula_units_Z   2
loop_
 _symmetry_equiv_pos_site_id
 _symmetry_equiv_pos_as_xyz
  1  'x, y, z'
loop_
 _atom_site_type_symbol
 _atom_site_label
 _atom_site_symmetry_multiplicity
 _atom_site_fract_x
 _atom_site_fract_y
 _atom_site_fract_z
 _atom_site_occupancy
  Ni  Ni0  1  0.00078377  0.99890898  0.00076021  1
  Ni  Ni1  1  0.16649934  0.16618743  0.16656335  1
  Ni  Ni2  1  0.00140773  0.99990185  0.33330502  1
  Ni  Ni3  1  0.00216272  0.33344629  0.00190385  1
  Ni  Ni4  1  0.16499778  0.50005267  0.16632477  1
  Ni  Ni5  1  0.00012748  0.33350688  0.33307574  1
  Ni  Ni6  1  0.00097135  0.66737377  0.00076264  1
  Ni  Ni7  1  0.16666967  0.83350274  0.16678315  1
  Ni  Ni8  1  -0.00001947  0.66633402  0.33307331  1
  Ni  Ni9  1  0.33335991  -0.00001445  0.00017565  1
  Ni  Ni10  1  0.49879833  0.16589156  0.16550183  1
  Ni  Ni11  1  0.33173064  0.00003725  0.33307730  1
  Ni  Ni12  1  0.33208942  0.33238801  0.99869576  1
  Cr  Cr13  1  0.49952137  0.50042603  0.16692075  1
  Ni  Ni14  1  0.33202963  0.33238713  0.33416783  1
  Ni  Ni15  1  0.33209196  0.66738593  0.99889562  1
  Ni  Ni16  1  0.49862961  0.83392049  0.16572535  1
  Ni  Ni17  1  0.33200234  0.66733583  0.33419537  1
  Ni  Ni18  1  0.66562857  0.99890807  0.00054660  1
  Ni  Ni19  1  0.83443003  0.16744279  0.16569311  1
  Cr  Cr20  1  0.66659001  -0.00008324  0.33306136  1
  Ni  Ni21  1  0.66550522  0.33219043  0.00108981  1
  Ni  Ni22  1  0.83469793  0.49989424  0.16677896  1
  Ni  Ni23  1  0.66756246  0.33385671  0.33413885  1
  Ni  Ni24  1  0.66665490  0.66864103  -0.00004179  1
  Ni  Ni25  1  0.83442857  0.83240729  0.16526424  1
  Ni  Ni26  1  0.66773606  0.66601137  0.33416896  1
  Ni  Ni27  1  0.16654754  0.16623888  0.49995281  1
  Ni  Ni28  1  0.00084719  0.99885204  0.66562489  1
  Ni  Ni29  1  0.16830030  0.16612914  0.83323345  1
  Ni  Ni30  1  0.16671842  0.50004875  0.49995373  1
  Ni  Ni31  1  0.00218336  0.33353508  0.66470295  1
  Ni  Ni32  1  0.16841372  0.50009997  0.83345630  1
  Ni  Ni33  1  0.16671789  0.83345665  0.49972889  1
  Ni  Ni34  1  0.00095458  0.66733638  0.66589832  1
  Ni  Ni35  1  0.16680010  0.83351554  0.83323470  1
  Ni  Ni36  1  0.49880389  0.16747553  0.50080016  1
  Ni  Ni37  1  0.33339935  -0.00000629  0.66649965  1
  Ni  Ni38  1  0.49817480  0.16643292  0.83344324  1
  Ni  Ni39  1  0.49988526  0.50004888  0.50014908  1
  Ni  Ni40  1  0.33310184  0.33335874  0.66693013  1
  Ni  Ni41  1  0.49825773  0.50010389  0.83301988  1
  Ni  Ni42  1  0.49863514  0.83221147  0.50056935  1
  Ni  Ni43  1  0.33310901  0.66638932  0.66670554  1
  Ni  Ni44  1  0.49954951  0.83320337  0.83344627  1
  Ni  Ni45  1  0.83438778  0.16749910  0.50082505  1
  Ni  Ni46  1  0.66551817  0.99888209  0.66607217  1
  Cr  Cr47  1  0.83374772  0.16474373  0.83286946  1
  Ni  Ni48  1  0.83313568  0.49989036  0.49950774  1
  Ni  Ni49  1  0.66449328  0.33318570  0.66449966  1
  Cr  Cr50  1  0.83312342  0.50117818  0.83347621  1
  Ni  Ni51  1  0.83438725  0.83235658  0.50125090  1
  Ni  Ni52  1  0.66569164  0.66765641  0.66567166  1
  Ni  Ni53  1  0.83339350  0.83330194  0.83323565  1
" 