2811,Ni9Cr91_4,-237.097875147447, 168.528855530211,Ni9Cr91,"# generated using pymatgen
 data_Cr2Ni25
_symmetry_space_group_name_H-M   'P 1'
_cell_length_a   7.46803173
_cell_length_b   7.46803173
_cell_length_c   10.56139175
_cell_angle_alpha   90.00000000
_cell_angle_beta   90.00000000
_cell_angle_gamma   90.00000000
_symmetry_Int_Tables_number   1
_chemical_formula_structural   Cr2Ni25
_chemical_formula_sum   'Cr4 Ni50'
_cell_volume   589.02463747
_cell_formula_units_Z   2
loop_
 _symmetry_equiv_pos_site_id
 _symmetry_equiv_pos_as_xyz
  1  'x, y, z'
loop_
 _atom_site_type_symbol
 _atom_site_label
 _atom_site_symmetry_multiplicity
 _atom_site_fract_x
 _atom_site_fract_y
 _atom_site_fract_z
 _atom_site_occupancy
  Ni  Ni0  1  0.00119799  0.00069050  0.99908626  1
  Ni  Ni1  1  0.16567258  0.16659100  0.16672662  1
  Ni  Ni2  1  0.00125533  0.00066597  0.33397087  1
  Ni  Ni3  1  0.00112442  0.33219653  0.99931149  1
  Ni  Ni4  1  0.16812976  0.49993504  0.16672832  1
  Ni  Ni5  1  0.00252312  0.33223490  0.33397353  1
  Ni  Ni6  1  0.00221443  0.66681189  0.99773289  1
  Ni  Ni7  1  0.16799713  0.83328179  0.16655153  1
  Ni  Ni8  1  0.00225436  0.66684283  0.33530250  1
  Ni  Ni9  1  0.33204716  0.99873799  0.99889211  1
  Cr  Cr10  1  0.49872890  0.16527737  0.16544338  1
  Ni  Ni11  1  0.33201020  0.99870816  0.33412957  1
  Ni  Ni12  1  0.33212050  0.33426906  0.99916536  1
  Ni  Ni13  1  0.49714774  0.50215641  0.16561411  1
  Ni  Ni14  1  0.33071675  0.33425131  0.33413390  1
  Ni  Ni15  1  0.33299857  0.66685604  0.00014291  1
  Ni  Ni16  1  0.49808446  0.83189094  0.16672098  1
  Ni  Ni17  1  0.33295186  0.66689809  0.33289817  1
  Ni  Ni18  1  0.66667227  0.99977546  0.99813528  1
  Ni  Ni19  1  0.83589919  0.16569199  0.16561215  1
  Ni  Ni20  1  0.66661205  0.99840337  0.33516805  1
  Ni  Ni21  1  0.66660227  0.33326420  0.99782422  1
  Cr  Cr22  1  0.83457362  0.50005036  0.16537302  1
  Cr  Cr23  1  0.66664387  0.33339050  0.33548350  1
  Ni  Ni24  1  0.66444591  0.66674208  0.99807904  1
  Cr  Cr25  1  0.83314168  0.83442486  0.16680029  1
  Ni  Ni26  1  0.66444624  0.66817224  0.33522009  1
  Ni  Ni27  1  0.16698662  0.16659317  0.50002163  1
  Ni  Ni28  1  0.00017530  0.99990479  0.66681177  1
  Ni  Ni29  1  0.16700632  0.16667110  0.83306202  1
  Ni  Ni30  1  0.16665044  0.49991763  0.50001932  1
  Ni  Ni31  1  -0.00002523  0.33306716  0.66643355  1
  Ni  Ni32  1  0.16662660  0.49983795  0.83306622  1
  Ni  Ni33  1  0.16666657  0.83329042  0.50020017  1
  Ni  Ni34  1  0.00037309  0.66681959  0.66678904  1
  Ni  Ni35  1  0.16666843  0.83328918  0.83304741  1
  Ni  Ni36  1  0.49848774  0.16559109  0.50146059  1
  Ni  Ni37  1  0.33294862  0.99951176  0.66678410  1
  Ni  Ni38  1  0.49939254  0.16649680  0.83271768  1
  Ni  Ni39  1  0.49851916  0.50086972  0.50091310  1
  Ni  Ni40  1  0.33312669  0.33346527  0.66643574  1
  Ni  Ni41  1  0.49953443  0.49985630  0.83338091  1
  Ni  Ni42  1  0.49964114  0.83346889  0.49969341  1
  Ni  Ni43  1  0.33312846  0.66683797  0.66680979  1
  Ni  Ni44  1  0.49971877  0.83349245  0.83337822  1
  Ni  Ni45  1  0.83443424  0.16548767  0.50053181  1
  Ni  Ni46  1  0.66669238  0.99990310  0.66643250  1
  Ni  Ni47  1  0.83343687  0.16649399  0.83375396  1
  Ni  Ni48  1  0.83451039  0.50111214  0.50116549  1
  Ni  Ni49  1  0.66669236  0.33325893  0.66677168  1
  Ni  Ni50  1  0.83359829  0.50018349  0.83303593  1
  Ni  Ni51  1  0.83351514  0.83309725  0.50003972  1
  Ni  Ni52  1  0.66629554  0.66663863  0.66643142  1
  Ni  Ni53  1  0.83342878  0.83307467  0.83303473  1
" 