5171,Ni9Cr91_2,-237.125522037235, 170.294662584001,Ni9Cr91,"# generated using pymatgen
 data_Cr2Ni25
_symmetry_space_group_name_H-M   'P 1'
_cell_length_a   7.46809569
_cell_length_b   7.46809569
_cell_length_c   10.56148221
_cell_angle_alpha   90.00000000
_cell_angle_beta   90.00000000
_cell_angle_gamma   90.00000000
_symmetry_Int_Tables_number   1
_chemical_formula_structural   Cr2Ni25
_chemical_formula_sum   'Cr4 Ni50'
_cell_volume   589.03977248
_cell_formula_units_Z   2
loop_
 _symmetry_equiv_pos_site_id
 _symmetry_equiv_pos_as_xyz
  1  'x, y, z'
loop_
 _atom_site_type_symbol
 _atom_site_label
 _atom_site_symmetry_multiplicity
 _atom_site_fract_x
 _atom_site_fract_y
 _atom_site_fract_z
 _atom_site_occupancy
  Ni  Ni0  1  0.99879507  0.00255078  0.00085796  1
  Ni  Ni1  1  0.16629904  0.16661366  0.16617893  1
  Ni  Ni2  1  0.99985519  0.99975860  0.33306105  1
  Ni  Ni3  1  0.00015755  0.33151384  0.99968812  1
  Ni  Ni4  1  0.16751368  0.49869949  0.16738082  1
  Ni  Ni5  1  0.00015508  0.33344972  0.33307850  1
  Cr  Cr6  1  0.99926820  0.66507832  0.00153569  1
  Ni  Ni7  1  0.16592078  0.83445758  0.16779368  1
  Ni  Ni8  1  0.00002797  0.66658421  0.33327710  1
  Ni  Ni9  1  0.33352816  0.00220979  0.99971479  1
  Ni  Ni10  1  0.50002439  0.16846012  0.16664657  1
  Ni  Ni11  1  0.33240316  0.00109746  0.33443480  1
  Ni  Ni12  1  0.33333619  0.33317120  -0.00006523  1
  Ni  Ni13  1  0.50015753  0.49821216  0.16639450  1
  Ni  Ni14  1  0.33326356  0.33326027  0.33307738  1
  Ni  Ni15  1  0.33497279  0.66437662  -0.00006319  1
  Cr  Cr16  1  0.49986441  0.83314632  0.16615875  1
  Ni  Ni17  1  0.33205080  0.66543154  0.33397867  1
  Ni  Ni18  1  0.66744934  0.00104532  0.99901269  1
  Ni  Ni19  1  0.83347214  0.16692184  0.16639717  1
  Ni  Ni20  1  0.66753656  0.00097174  0.33400244  1
  Ni  Ni21  1  0.66630413  0.33301575  -0.00004516  1
  Ni  Ni22  1  0.83216921  0.49858674  0.16753945  1
  Ni  Ni23  1  0.66636886  0.33308332  0.33330214  1
  Ni  Ni24  1  0.66589781  0.66573945  0.99856886  1
  Ni  Ni25  1  0.83404051  0.83430397  0.16732348  1
  Ni  Ni26  1  0.66771861  0.66573645  0.33420202  1
  Ni  Ni27  1  0.16638166  0.16650886  0.50035853  1
  Ni  Ni28  1  0.00056950  0.00081816  0.66585284  1
  Ni  Ni29  1  0.16638190  0.16838303  0.83326669  1
  Ni  Ni30  1  0.16650389  0.49987846  0.50009999  1
  Ni  Ni31  1  0.00022733  0.33349718  0.66700692  1
  Ni  Ni32  1  0.16756007  0.49701343  0.83236475  1
  Ni  Ni33  1  0.16668217  0.83338610  0.49969001  1
  Ni  Ni34  1  0.99906566  0.66547756  0.66542099  1
  Cr  Cr35  1  0.16774866  0.83450824  0.83230214  1
  Ni  Ni36  1  0.49894514  0.16774251  0.49871291  1
  Ni  Ni37  1  0.33258322  0.00108652  0.66566821  1
  Ni  Ni38  1  0.49906458  0.16774381  0.83437398  1
  Ni  Ni39  1  0.50015733  0.49999787  0.49990334  1
  Ni  Ni40  1  0.33319203  0.33332406  0.66679503  1
  Ni  Ni41  1  0.50023174  0.49992683  0.83348682  1
  Ni  Ni42  1  0.49879008  0.83208014  0.49941390  1
  Ni  Ni43  1  0.33406672  0.66535246  0.66586123  1
  Ni  Ni44  1  0.50069264  0.83213203  0.83416668  1
  Ni  Ni45  1  0.83445419  0.16788316  0.49896053  1
  Cr  Cr46  1  0.66614134  0.00028976  0.66641721  1
  Ni  Ni47  1  0.83431931  0.16794398  0.83436651  1
  Ni  Ni48  1  0.83313287  0.49970162  0.50012006  1
  Ni  Ni49  1  0.66636574  0.33495075  0.66654334  1
  Ni  Ni50  1  0.83203228  0.49857764  0.83214553  1
  Ni  Ni51  1  0.83429700  0.83223610  0.49898914  1
  Ni  Ni52  1  0.66665136  0.66502034  0.66700289  1
  Ni  Ni53  1  0.83142172  0.83327395  0.83348864  1
" 