2650,Ni9Cr91_8,-237.020481307501, 168.801115326524,Ni9Cr91,"# generated using pymatgen
 data_Cr2Ni25
_symmetry_space_group_name_H-M   'P 1'
_cell_length_a   7.46776752
_cell_length_b   7.46776752
_cell_length_c   10.56101810
_cell_angle_alpha   90.00000000
_cell_angle_beta   90.00000000
_cell_angle_gamma   90.00000000
_symmetry_Int_Tables_number   1
_chemical_formula_structural   Cr2Ni25
_chemical_formula_sum   'Cr4 Ni50'
_cell_volume   588.96212300
_cell_formula_units_Z   2
loop_
 _symmetry_equiv_pos_site_id
 _symmetry_equiv_pos_as_xyz
  1  'x, y, z'
loop_
 _atom_site_type_symbol
 _atom_site_label
 _atom_site_symmetry_multiplicity
 _atom_site_fract_x
 _atom_site_fract_y
 _atom_site_fract_z
 _atom_site_occupancy
  Ni  Ni0  1  0.00075071  0.99911164  0.99890186  1
  Ni  Ni1  1  0.16803566  0.16655777  0.16676072  1
  Ni  Ni2  1  0.00209211  0.99794027  0.33328513  1
  Ni  Ni3  1  0.99977368  0.33310701  0.99989383  1
  Ni  Ni4  1  0.16601845  0.49935178  0.16583224  1
  Ni  Ni5  1  0.00181595  0.33514928  0.33328513  1
  Ni  Ni6  1  0.99874971  0.66767142  0.00116277  1
  Ni  Ni7  1  0.16601593  0.83393457  0.16545238  1
  Ni  Ni8  1  0.99841636  0.66669024  0.33328513  1
  Ni  Ni9  1  0.33328056  0.00013700  0.00011533  1
  Ni  Ni10  1  0.49853371  0.16640916  0.16702221  1
  Ni  Ni11  1  0.33315956  0.00143683  0.33328513  1
  Ni  Ni12  1  0.33433808  0.33208305  0.00116277  1
  Ni  Ni13  1  0.50060123  0.49934927  0.16545238  1
  Ni  Ni14  1  0.33335691  0.33174970  0.33328513  1
  Ni  Ni15  1  0.33437883  0.66771216  0.00067715  1
  Ni  Ni16  1  0.50077303  0.83410637  0.16572303  1
  Cr  Cr17  1  0.33331485  0.66664819  0.33328513  1
  Ni  Ni18  1  0.66578647  0.99911980  0.99905876  1
  Cr  Cr19  1  0.83262510  0.16595843  0.16714831  1
  Ni  Ni20  1  0.66452926  0.99786259  0.33328513  1
  Ni  Ni21  1  0.66577830  0.33408405  0.99890186  1
  Ni  Ni22  1  0.83322443  0.50136900  0.16676072  1
  Ni  Ni23  1  0.66460694  0.33542544  0.33328513  1
  Ni  Ni24  1  0.66680367  0.66661389  0.00011533  1
  Ni  Ni25  1  0.83307583  0.83186705  0.16702221  1
  Ni  Ni26  1  0.66810350  0.66649289  0.33328513  1
  Ni  Ni27  1  0.16803566  0.16655777  0.49980954  1
  Ni  Ni28  1  0.00075071  0.99911164  0.66766841  1
  Ni  Ni29  1  0.16688276  0.16538483  0.83328513  1
  Ni  Ni30  1  0.16601845  0.49935178  0.50073803  1
  Ni  Ni31  1  0.99977368  0.33310701  0.66667643  1
  Cr  Cr32  1  0.16790161  0.50123494  0.83328513  1
  Ni  Ni33  1  0.16601593  0.83393457  0.50111789  1
  Ni  Ni34  1  0.99874971  0.66767142  0.66540750  1
  Ni  Ni35  1  0.16697284  0.83459613  0.83328513  1
  Ni  Ni36  1  0.49853371  0.16640916  0.49954805  1
  Ni  Ni37  1  0.33328056  0.00013700  0.66645493  1
  Ni  Ni38  1  0.49990689  0.16641148  0.83328513  1
  Ni  Ni39  1  0.50060123  0.49934927  0.50111789  1
  Ni  Ni40  1  0.33433808  0.33208305  0.66540750  1
  Ni  Ni41  1  0.50126280  0.50030617  0.83328513  1
  Ni  Ni42  1  0.50077303  0.83410637  0.50084723  1
  Ni  Ni43  1  0.33437883  0.66771216  0.66589312  1
  Ni  Ni44  1  0.49979284  0.83312617  0.83328513  1
  Cr  Cr45  1  0.83262510  0.16595843  0.49942196  1
  Ni  Ni46  1  0.66578647  0.99911980  0.66751151  1
  Ni  Ni47  1  0.83306555  0.16639888  0.83328513  1
  Ni  Ni48  1  0.83322443  0.50136900  0.49980954  1
  Ni  Ni49  1  0.66577830  0.33408405  0.66766841  1
  Ni  Ni50  1  0.83205149  0.50021610  0.83328513  1
  Ni  Ni51  1  0.83307583  0.83186705  0.49954805  1
  Ni  Ni52  1  0.66680367  0.66661389  0.66645493  1
  Ni  Ni53  1  0.83307814  0.83324023  0.83328513  1
" 