497,Ni9Cr91_15,-237.113250464578, 169.587687477376,Ni9Cr91,"# generated using pymatgen
 data_Cr2Ni25
_symmetry_space_group_name_H-M   'P 1'
_cell_length_a   7.46872113
_cell_length_b   7.46872113
_cell_length_c   10.56236672
_cell_angle_alpha   90.00000000
_cell_angle_beta   90.00000000
_cell_angle_gamma   90.00000000
_symmetry_Int_Tables_number   1
_chemical_formula_structural   Cr2Ni25
_chemical_formula_sum   'Cr4 Ni50'
_cell_volume   589.18777925
_cell_formula_units_Z   2
loop_
 _symmetry_equiv_pos_site_id
 _symmetry_equiv_pos_as_xyz
  1  'x, y, z'
loop_
 _atom_site_type_symbol
 _atom_site_label
 _atom_site_symmetry_multiplicity
 _atom_site_fract_x
 _atom_site_fract_y
 _atom_site_fract_z
 _atom_site_occupancy
  Ni  Ni0  1  0.99984939  0.99981417  0.99960359  1
  Ni  Ni1  1  0.16649859  0.16683662  0.16613967  1
  Ni  Ni2  1  0.99910387  0.99921821  0.33244054  1
  Ni  Ni3  1  0.00257184  0.33243845  0.00044210  1
  Ni  Ni4  1  0.16633034  0.49943775  0.16632818  1
  Ni  Ni5  1  0.99910496  0.33400391  0.33244009  1
  Ni  Ni6  1  0.00085934  0.66741133  0.00061137  1
  Ni  Ni7  1  0.16650001  0.83338976  0.16672382  1
  Ni  Ni8  1  0.00011329  0.66644185  0.33344789  1
  Ni  Ni9  1  0.33309111  -0.00001719  0.99966112  1
  Ni  Ni10  1  0.49893716  0.16582909  0.16750431  1
  Ni  Ni11  1  0.33406077  0.99938538  0.33260849  1
  Ni  Ni12  1  0.33154508  0.33344668  0.99979152  1
  Ni  Ni13  1  0.49927359  0.50061400  0.16716662  1
  Ni  Ni14  1  0.33422906  0.33400585  0.33208233  1
  Ni  Ni15  1  0.33308954  0.66623434  0.99943415  1
  Ni  Ni16  1  0.50011172  0.83322137  0.16632800  1
  Ni  Ni17  1  0.33305220  0.66627213  0.33361668  1
  Ni  Ni18  1  0.66672364  0.99826970  0.99960344  1
  Ni  Ni19  1  0.83422882  0.16599839  0.16733605  1
  Ni  Ni20  1  0.66649995  0.00039462  0.33327895  1
  Cr  Cr21  1  0.66555803  0.33243184  0.00046322  1
  Ni  Ni22  1  0.83406004  0.50061247  0.16752384  1
  Ni  Ni23  1  0.66633016  0.33299602  0.33380517  1
  Ni  Ni24  1  0.66571440  0.66895756  0.00061190  1
  Ni  Ni25  1  0.83305219  0.83305305  0.16615917  1
  Ni  Ni26  1  0.66649839  0.66627344  0.33305233  1
  Cr  Cr27  1  0.16593549  0.16559992  0.49893516  1
  Ni  Ni28  1  0.99869383  0.99903185  0.66761962  1
  Ni  Ni29  1  0.16590233  0.16586756  0.83435912  1
  Ni  Ni30  1  0.16554676  0.50234384  0.49933374  1
  Ni  Ni31  1  0.99798648  0.33322131  0.66678161  1
  Ni  Ni32  1  0.16744807  0.50022061  0.83400221  1
  Ni  Ni33  1  0.16672380  0.83148778  0.50017220  1
  Ni  Ni34  1  0.00070838  0.66741020  0.66560600  1
  Ni  Ni35  1  0.16691031  0.83357589  0.83276789  1
  Ni  Ni36  1  0.50240415  0.16582828  0.49916466  1
  Ni  Ni37  1  0.33406050  0.99748558  0.66739364  1
  Ni  Ni38  1  0.49953314  0.16485933  0.83299439  1
  Ni  Ni39  1  0.50102561  0.50080044  0.49933387  1
  Cr  Cr40  1  0.33421648  0.33421788  0.66776160  1
  Ni  Ni41  1  0.49815400  0.50139720  0.83316331  1
  Ni  Ni42  1  0.49985091  0.83303470  0.50017225  1
  Ni  Ni43  1  0.33305238  0.66794899  0.66661289  1
  Ni  Ni44  1  0.49970119  0.83340769  0.83316326  1
  Ni  Ni45  1  0.83154568  0.16700512  0.50034160  1
  Ni  Ni46  1  0.66691016  0.00020780  0.66678156  1
  Ni  Ni47  1  0.83422889  0.16432260  0.83198645  1
  Ni  Ni48  1  0.83309083  0.49979260  0.49998425  1
  Ni  Ni49  1  0.66744923  0.33221360  0.66541698  1
  Cr  Cr50  1  0.83384029  0.50063476  0.83239173  1
  Ni  Ni51  1  0.83308935  0.83286630  0.50011482  1
  Ni  Ni52  1  0.66590217  0.66724238  0.66600070  1
  Ni  Ni53  1  0.83305221  0.83495508  0.83339000  1
" 