389,Ni9Cr91_16,-237.063729847139, 168.215442200297,Ni9Cr91,"# generated using pymatgen
 data_Cr2Ni25
_symmetry_space_group_name_H-M   'P 1'
_cell_length_a   7.46754561
_cell_length_b   7.46754561
_cell_length_c   10.56070428
_cell_angle_alpha   90.00000000
_cell_angle_beta   90.00000000
_cell_angle_gamma   90.00000000
_symmetry_Int_Tables_number   1
_chemical_formula_structural   Cr2Ni25
_chemical_formula_sum   'Cr4 Ni50'
_cell_volume   588.90962037
_cell_formula_units_Z   2
loop_
 _symmetry_equiv_pos_site_id
 _symmetry_equiv_pos_as_xyz
  1  'x, y, z'
loop_
 _atom_site_type_symbol
 _atom_site_label
 _atom_site_symmetry_multiplicity
 _atom_site_fract_x
 _atom_site_fract_y
 _atom_site_fract_z
 _atom_site_occupancy
  Ni  Ni0  1  0.00156370  0.00156370  0.99992554  1
  Ni  Ni1  1  0.16676886  0.16676886  0.16654661  1
  Ni  Ni2  1  0.00076151  0.00076151  0.33413796  1
  Ni  Ni3  1  0.99954484  0.33352292  0.99970470  1
  Ni  Ni4  1  0.16693763  0.49987656  0.16636789  1
  Ni  Ni5  1  0.99972166  0.33334442  0.33312813  1
  Ni  Ni6  1  0.00141191  0.66481024  0.99954078  1
  Ni  Ni7  1  0.16811697  0.83325408  0.16636907  1
  Ni  Ni8  1  0.00058626  0.66579773  0.33431288  1
  Ni  Ni9  1  0.33352292  0.99954484  0.99970470  1
  Ni  Ni10  1  0.49987656  0.16693763  0.16636789  1
  Ni  Ni11  1  0.33334442  0.99972166  0.33312813  1
  Ni  Ni12  1  0.33252051  0.33252051  0.00070486  1
  Ni  Ni13  1  0.49985133  0.49985133  0.16673166  1
  Ni  Ni14  1  0.33332013  0.33332013  0.33335221  1
  Ni  Ni15  1  0.33267142  0.66783788  0.00053570  1
  Ni  Ni16  1  0.49852461  0.83311285  0.16619337  1
  Ni  Ni17  1  0.33348834  0.66685768  0.33330737  1
  Ni  Ni18  1  0.66481024  0.00141191  0.99954078  1
  Ni  Ni19  1  0.83325408  0.16811697  0.16636907  1
  Ni  Ni20  1  0.66579773  0.00058626  0.33431288  1
  Ni  Ni21  1  0.66783788  0.33267142  0.00053570  1
  Ni  Ni22  1  0.83311285  0.49852461  0.16619337  1
  Ni  Ni23  1  0.66685768  0.33348834  0.33330737  1
  Ni  Ni24  1  0.66581612  0.66581612  0.00091154  1
  Cr  Cr25  1  0.83352433  0.83352433  0.16681102  1
  Ni  Ni26  1  0.66582837  0.66582837  0.33394475  1
  Ni  Ni27  1  0.16660859  0.16660859  0.50000243  1
  Ni  Ni28  1  0.00091034  0.00091034  0.66584050  1
  Ni  Ni29  1  0.16660952  0.16660952  0.83335371  1
  Ni  Ni30  1  0.16677436  0.50021635  0.50040281  1
  Ni  Ni31  1  0.99988517  0.33336082  0.66706276  1
  Ni  Ni32  1  0.16508861  0.50005427  0.83312985  1
  Ni  Ni33  1  0.16627843  0.83307535  0.50022627  1
  Ni  Ni34  1  0.00243680  0.66562328  0.66606085  1
  Ni  Ni35  1  0.16795418  0.83323700  0.83330365  1
  Ni  Ni36  1  0.50021635  0.16677436  0.50040281  1
  Ni  Ni37  1  0.33336082  0.99988517  0.66706276  1
  Ni  Ni38  1  0.50005427  0.16508861  0.83312985  1
  Ni  Ni39  1  0.49920686  0.49920686  0.49903519  1
  Ni  Ni40  1  0.33234567  0.33234567  0.66582718  1
  Cr  Cr41  1  0.49893304  0.49893304  0.83391257  1
  Ni  Ni42  1  0.49952960  0.83392622  0.49938868  1
  Ni  Ni43  1  0.33082585  0.66767161  0.66605230  1
  Ni  Ni44  1  0.49768912  0.83575445  0.83431276  1
  Ni  Ni45  1  0.83307535  0.16627843  0.50022627  1
  Ni  Ni46  1  0.66562328  0.00243680  0.66606085  1
  Ni  Ni47  1  0.83323700  0.16795418  0.83330365  1
  Ni  Ni48  1  0.83392622  0.49952960  0.49938868  1
  Ni  Ni49  1  0.66767161  0.33082585  0.66605230  1
  Ni  Ni50  1  0.83575445  0.49768912  0.83431276  1
  Ni  Ni51  1  0.83408442  0.83408442  0.49922013  1
  Cr  Cr52  1  0.66663616  0.66663616  0.66500637  1
  Cr  Cr53  1  0.83411047  0.83411047  0.83413555  1
" 