5151,Ni9Fe84Cr6_13,-226.613656001792, 148.943498992967,Ni9Fe84Cr6,"# generated using pymatgen
 data_Cr4(Fe9Ni)5
_symmetry_space_group_name_H-M   'P 1'
_cell_length_a   7.42900999
_cell_length_b   7.42900999
_cell_length_c   10.50620669
_cell_angle_alpha   90.00000000
_cell_angle_beta   90.00000000
_cell_angle_gamma   90.00000000
_symmetry_Int_Tables_number   1
_chemical_formula_structural   Cr4(Fe9Ni)5
_chemical_formula_sum   'Cr4 Fe45 Ni5'
_cell_volume   579.83953790
_cell_formula_units_Z   1
loop_
 _symmetry_equiv_pos_site_id
 _symmetry_equiv_pos_as_xyz
  1  'x, y, z'
loop_
 _atom_site_type_symbol
 _atom_site_label
 _atom_site_symmetry_multiplicity
 _atom_site_fract_x
 _atom_site_fract_y
 _atom_site_fract_z
 _atom_site_occupancy
  Fe  Fe0  1  0.00592913  0.00392643  1.00252196  1
  Fe  Fe1  1  0.16959452  0.16937697  0.16950195  1
  Fe  Fe2  1  0.00310752  0.00393124  0.33586243  1
  Fe  Fe3  1  1.00252626  0.33569790  1.00247339  1
  Fe  Fe4  1  0.16764193  0.50342871  0.16949518  1
  Fe  Fe5  1  1.00099214  0.33568460  0.33613809  1
  Fe  Fe6  1  0.00579104  0.66846686  1.00228061  1
  Ni  Ni7  1  0.16891873  0.83656959  0.17017704  1
  Fe  Fe8  1  0.00320201  0.66844060  0.33605341  1
  Fe  Fe9  1  0.33446468  1.00145130  1.00244841  1
  Fe  Fe10  1  0.50174293  0.16611411  0.16906842  1
  Fe  Fe11  1  0.33628151  1.00168763  0.33577146  1
  Fe  Fe12  1  0.33498637  0.33468744  1.00144813  1
  Cr  Cr13  1  0.50193042  0.49984644  0.16999147  1
  Fe  Fe14  1  0.33622214  0.33443712  0.33744555  1
  Fe  Fe15  1  0.33398587  0.67119922  1.00204427  1
  Fe  Fe16  1  0.50075482  0.83635958  0.16982002  1
  Fe  Fe17  1  0.33579830  0.67136888  0.33650999  1
  Fe  Fe18  1  0.66742660  0.00458044  1.00229998  1
  Fe  Fe19  1  0.83599809  0.17055935  0.16940772  1
  Ni  Ni20  1  0.66831611  0.00305264  0.33504607  1
  Fe  Fe21  1  0.67012308  0.33487205  1.00136516  1
  Fe  Fe22  1  0.83783563  0.50212640  0.16972576  1
  Fe  Fe23  1  0.67033450  0.33488877  0.33693704  1
  Fe  Fe24  1  0.66827015  0.66812421  0.00257784  1
  Cr  Cr25  1  0.83629871  0.83629854  0.16863128  1
  Ni  Ni26  1  0.66901974  0.66962102  0.33627856  1
  Fe  Fe27  1  0.16892695  0.16915536  0.50246959  1
  Fe  Fe28  1  0.00414727  0.00477149  0.66923902  1
  Fe  Fe29  1  0.16900770  0.16864490  0.83571178  1
  Fe  Fe30  1  0.16905890  0.50247206  0.50273899  1
  Fe  Fe31  1  1.00173844  0.33510354  0.66906373  1
  Fe  Fe32  1  0.16909480  0.50322068  0.83542754  1
  Fe  Fe33  1  0.17122615  0.83607131  0.50280371  1
  Fe  Fe34  1  0.00428070  0.66808638  0.66929985  1
  Ni  Ni35  1  0.16911769  0.83653391  0.83461767  1
  Fe  Fe36  1  0.50333966  0.16798471  0.50267204  1
  Fe  Fe37  1  0.33599331  1.00239059  0.66941879  1
  Fe  Fe38  1  0.50185914  0.16797885  0.83571132  1
  Fe  Fe39  1  0.50261307  0.50300226  0.50182424  1
  Fe  Fe40  1  0.33692077  0.33519203  0.66906805  1
  Fe  Fe41  1  0.50169149  0.50355828  0.83639304  1
  Fe  Fe42  1  0.50235261  0.83693237  0.50239536  1
  Fe  Fe43  1  0.33637658  0.67023500  0.66949061  1
  Fe  Fe44  1  0.50094488  0.83634141  0.83543793  1
  Fe  Fe45  1  0.83483640  0.16980662  0.50268501  1
  Ni  Ni46  1  0.66812846  0.00318155  0.66989992  1
  Fe  Fe47  1  0.83660012  0.17000742  0.83544937  1
  Fe  Fe48  1  0.83576947  0.50138273  0.50225852  1
  Fe  Fe49  1  0.66893620  0.33547086  0.66962704  1
  Fe  Fe50  1  0.83693550  0.50176718  0.83585625  1
  Cr  Cr51  1  0.83682990  0.83737635  0.50319764  1
  Fe  Fe52  1  0.66727185  0.66819147  0.66846618  1
  Cr  Cr53  1  0.83675298  0.83658658  0.83569956  1
" 