198,Ni9Fe87Cr2_0,-226.942949779231, 148.259608200222,Ni9Fe87Cr2,"# generated using pymatgen
 data_Cr2Fe47Ni5
_symmetry_space_group_name_H-M   'P 1'
_cell_length_a   7.41819324
_cell_length_b   7.41819324
_cell_length_c   10.49090948
_cell_angle_alpha   90.00000000
_cell_angle_beta   90.00000000
_cell_angle_gamma   90.00000000
_symmetry_Int_Tables_number   1
_chemical_formula_structural   Cr2Fe47Ni5
_chemical_formula_sum   'Cr2 Fe47 Ni5'
_cell_volume   577.31045708
_cell_formula_units_Z   1
loop_
 _symmetry_equiv_pos_site_id
 _symmetry_equiv_pos_as_xyz
  1  'x, y, z'
loop_
 _atom_site_type_symbol
 _atom_site_label
 _atom_site_symmetry_multiplicity
 _atom_site_fract_x
 _atom_site_fract_y
 _atom_site_fract_z
 _atom_site_occupancy
  Fe  Fe0  1  1.00138115  0.00390007  1.00322740  1
  Fe  Fe1  1  0.16969149  0.17022806  0.17070982  1
  Fe  Fe2  1  1.00263723  1.00315398  0.33666189  1
  Fe  Fe3  1  1.00301629  0.33642261  1.00329192  1
  Fe  Fe4  1  0.17046904  0.50386533  0.17002525  1
  Fe  Fe5  1  1.00267113  0.33635003  0.33668853  1
  Fe  Fe6  1  1.00305004  0.66955563  0.00338508  1
  Fe  Fe7  1  0.16962093  0.83578525  0.17073374  1
  Fe  Fe8  1  0.00436853  0.67037573  0.33662717  1
  Cr  Cr9  1  0.33645754  1.00313149  0.00340229  1
  Fe  Fe10  1  0.50454920  0.17029973  0.17079328  1
  Fe  Fe11  1  0.33754378  1.00285354  0.33618763  1
  Fe  Fe12  1  0.33698345  0.33811717  1.00329154  1
  Fe  Fe13  1  0.50269340  0.50271642  0.16894307  1
  Fe  Fe14  1  0.33718299  0.33632156  0.33672582  1
  Fe  Fe15  1  0.33755372  0.66846775  0.00338126  1
  Ni  Ni16  1  0.50344637  0.83672057  0.17044178  1
  Fe  Fe17  1  0.33578876  0.67070520  0.33629803  1
  Fe  Fe18  1  0.67096821  0.00333192  0.00386213  1
  Fe  Fe19  1  0.83563667  0.16945241  0.16995696  1
  Ni  Ni20  1  0.66952138  0.00436296  0.33618617  1
  Ni  Ni21  1  0.67040278  0.33754960  0.00364382  1
  Fe  Fe22  1  0.83671812  0.50278741  0.16890582  1
  Fe  Fe23  1  0.67002435  0.33459712  0.33614546  1
  Fe  Fe24  1  0.66927692  0.67010170  1.00294741  1
  Fe  Fe25  1  0.83678756  0.83764400  0.16954870  1
  Cr  Cr26  1  0.67010472  0.67034449  0.33621820  1
  Fe  Fe27  1  0.16996168  0.17002002  0.50335809  1
  Fe  Fe28  1  1.00290283  1.00287675  0.66998910  1
  Fe  Fe29  1  0.16969315  0.17016359  0.83581130  1
  Fe  Fe30  1  0.16996167  0.50326006  0.50319887  1
  Fe  Fe31  1  1.00287424  0.33710674  0.66989828  1
  Fe  Fe32  1  0.17046962  0.50377531  0.83665456  1
  Fe  Fe33  1  0.16983281  0.83659862  0.50326517  1
  Fe  Fe34  1  1.00278013  0.66989515  0.66986670  1
  Fe  Fe35  1  0.16962823  0.83593892  0.83588006  1
  Fe  Fe36  1  0.50349888  0.16984751  0.50296182  1
  Fe  Fe37  1  0.33728333  1.00257389  0.67046586  1
  Fe  Fe38  1  0.50422282  0.17053107  0.83612298  1
  Fe  Fe39  1  0.50272808  0.50266193  0.50434648  1
  Fe  Fe40  1  0.33698042  0.33707798  0.66986114  1
  Fe  Fe41  1  0.50374860  0.50370828  0.83659014  1
  Fe  Fe42  1  0.50303102  0.83737042  0.50404210  1
  Fe  Fe43  1  0.33737949  0.67022648  0.67019783  1
  Ni  Ni44  1  0.50422829  0.83575186  0.83536259  1
  Fe  Fe45  1  0.83641745  0.16971820  0.50296131  1
  Fe  Fe46  1  0.66969248  1.00247773  0.66965218  1
  Fe  Fe47  1  0.83596299  0.16969037  0.83696028  1
  Fe  Fe48  1  0.83719012  0.50278953  0.50434694  1
  Fe  Fe49  1  0.67002411  0.33720063  0.67041252  1
  Fe  Fe50  1  0.83566299  0.50377561  0.83662710  1
  Fe  Fe51  1  0.83701527  0.83737199  0.50404233  1
  Ni  Ni52  1  0.67006730  0.66985128  0.67042423  1
  Fe  Fe53  1  0.83603150  0.83641362  0.83628516  1
" 