2102,Ni9Fe57Cr33_16,-222.009857936826, 175.647643608978,Ni9Fe57Cr33,"# generated using pymatgen
 data_Cr19(Fe6Ni)5
_symmetry_space_group_name_H-M   'P 1'
_cell_length_a   7.48760480
_cell_length_b   7.48760480
_cell_length_c   10.58907226
_cell_angle_alpha   90.00000000
_cell_angle_beta   90.00000000
_cell_angle_gamma   90.00000000
_symmetry_Int_Tables_number   1
_chemical_formula_structural   Cr19(Fe6Ni)5
_chemical_formula_sum   'Cr19 Fe30 Ni5'
_cell_volume   593.66813660
_cell_formula_units_Z   1
loop_
 _symmetry_equiv_pos_site_id
 _symmetry_equiv_pos_as_xyz
  1  'x, y, z'
loop_
 _atom_site_type_symbol
 _atom_site_label
 _atom_site_symmetry_multiplicity
 _atom_site_fract_x
 _atom_site_fract_y
 _atom_site_fract_z
 _atom_site_occupancy
  Fe  Fe0  1  0.99807165  0.00138974  0.99672676  1
  Cr  Cr1  1  0.16351521  0.16684638  0.16510736  1
  Cr  Cr2  1  0.99694263  -0.00021195  0.32811537  1
  Ni  Ni3  1  0.99569470  0.33149227  0.99731008  1
  Fe  Fe4  1  0.16693200  0.49618867  0.16482460  1
  Ni  Ni5  1  0.99851556  0.33278477  0.33326324  1
  Cr  Cr6  1  0.00156153  0.66352373  -0.00125326  1
  Fe  Fe7  1  0.16921813  0.82938598  0.16551095  1
  Cr  Cr8  1  0.00045725  0.66237982  0.33272234  1
  Cr  Cr9  1  0.33121438  0.99674360  0.99723727  1
  Cr  Cr10  1  0.49832991  0.16825870  0.16735351  1
  Fe  Fe11  1  0.33133890  0.99712040  0.33214108  1
  Fe  Fe12  1  0.33075897  0.33315921  0.99814486  1
  Ni  Ni13  1  0.49660700  0.49912182  0.16266975  1
  Fe  Fe14  1  0.33125378  0.33547329  0.33147187  1
  Fe  Fe15  1  0.33266184  0.66184048  -0.00134654  1
  Fe  Fe16  1  0.49752502  0.83003498  0.16418402  1
  Fe  Fe17  1  0.33193684  0.66411744  0.33040812  1
  Fe  Fe18  1  0.66692311  0.00249659  0.99844634  1
  Fe  Fe19  1  0.83047564  0.16875182  0.16385381  1
  Cr  Cr20  1  0.66370570  0.00045233  0.33458328  1
  Fe  Fe21  1  0.66532981  0.33271544  0.99647274  1
  Cr  Cr22  1  0.83012951  0.49706925  0.16517217  1
  Fe  Fe23  1  0.66753719  0.33297505  0.33319813  1
  Fe  Fe24  1  0.66455015  0.66166469  0.99810208  1
  Cr  Cr25  1  0.83125273  0.83356932  0.16183507  1
  Cr  Cr26  1  0.66429642  0.66520571  0.33319875  1
  Cr  Cr27  1  0.16594763  0.16744134  0.49861853  1
  Ni  Ni28  1  0.99770629  0.00027007  0.66813557  1
  Fe  Fe29  1  0.16171391  0.16481824  0.83232604  1
  Fe  Fe30  1  0.16454301  0.49748888  0.49999522  1
  Fe  Fe31  1  0.99811855  0.33070883  0.66572490  1
  Cr  Cr32  1  0.16515685  0.49447171  0.82993598  1
  Cr  Cr33  1  0.16309213  0.83347088  0.49941119  1
  Fe  Fe34  1  0.99615501  0.66418078  0.66469722  1
  Fe  Fe35  1  0.16332725  0.83156314  0.83095662  1
  Fe  Fe36  1  0.49855703  0.16547386  0.49820430  1
  Cr  Cr37  1  0.33313695  0.00052716  0.66692467  1
  Fe  Fe38  1  0.49999230  0.16801682  0.83350224  1
  Cr  Cr39  1  0.49798108  0.49731873  0.49908920  1
  Fe  Fe40  1  0.33189184  0.33026717  0.66640991  1
  Fe  Fe41  1  0.50118663  0.49760708  0.83400247  1
  Fe  Fe42  1  0.49824871  0.83271948  0.50015070  1
  Cr  Cr43  1  0.33180695  0.66460632  0.66704240  1
  Cr  Cr44  1  0.50241521  0.83102515  0.83235612  1
  Fe  Fe45  1  0.83390497  0.16597764  0.49969172  1
  Fe  Fe46  1  0.66714182  -0.00054117  0.66313895  1
  Fe  Fe47  1  0.83314349  0.16694695  0.83259648  1
  Fe  Fe48  1  0.83504830  0.49689471  0.50032505  1
  Cr  Cr49  1  0.66578640  0.33164799  0.66628541  1
  Ni  Ni50  1  0.83172415  0.49850139  0.83078866  1
  Fe  Fe51  1  0.83171083  0.83306114  0.50168872  1
  Fe  Fe52  1  0.66782947  0.66541265  0.66369369  1
  Cr  Cr53  1  0.83186927  0.83144516  0.83072589  1
" 