2227,Ni9Fe84Cr6_16,-226.584331681384, 152.74321906045,Ni9Fe84Cr6,"# generated using pymatgen
 data_Cr4(Fe9Ni)5
_symmetry_space_group_name_H-M   'P 1'
_cell_length_a   7.42758859
_cell_length_b   7.42758859
_cell_length_c   10.50419653
_cell_angle_alpha   90.00000000
_cell_angle_beta   90.00000000
_cell_angle_gamma   90.00000000
_symmetry_Int_Tables_number   1
_chemical_formula_structural   Cr4(Fe9Ni)5
_chemical_formula_sum   'Cr4 Fe45 Ni5'
_cell_volume   579.50677777
_cell_formula_units_Z   1
loop_
 _symmetry_equiv_pos_site_id
 _symmetry_equiv_pos_as_xyz
  1  'x, y, z'
loop_
 _atom_site_type_symbol
 _atom_site_label
 _atom_site_symmetry_multiplicity
 _atom_site_fract_x
 _atom_site_fract_y
 _atom_site_fract_z
 _atom_site_occupancy
  Fe  Fe0  1  1.00174235  1.00185206  0.00304613  1
  Fe  Fe1  1  0.16597980  0.16771284  0.16960884  1
  Fe  Fe2  1  1.00079282  1.00214699  0.33492088  1
  Fe  Fe3  1  1.00029340  0.33691157  0.00271171  1
  Fe  Fe4  1  0.16666337  0.50493422  0.16925424  1
  Fe  Fe5  1  0.99994550  0.33699689  0.33509112  1
  Fe  Fe6  1  1.00189531  0.66895941  0.00305260  1
  Fe  Fe7  1  0.16775645  0.83526414  0.16956459  1
  Fe  Fe8  1  1.00147657  0.66856018  0.33554302  1
  Fe  Fe9  1  0.33599789  1.00187513  0.00353985  1
  Fe  Fe10  1  0.50637080  0.16788383  0.16880452  1
  Fe  Fe11  1  0.33777340  1.00108798  0.33499799  1
  Cr  Cr12  1  0.33644481  0.33555605  0.00293535  1
  Fe  Fe13  1  0.50638606  0.50508294  0.16912039  1
  Cr  Cr14  1  0.33716929  0.33682827  0.33494680  1
  Fe  Fe15  1  0.33571603  0.66980960  0.00376472  1
  Fe  Fe16  1  0.50441909  0.83481781  0.16844363  1
  Fe  Fe17  1  0.33682141  0.67054544  0.33616515  1
  Fe  Fe18  1  0.67012186  0.00370396  0.00334746  1
  Fe  Fe19  1  0.83575143  0.16931370  0.16977531  1
  Fe  Fe20  1  0.66939933  0.00288618  0.33573314  1
  Fe  Fe21  1  0.67087092  0.33642924  0.00317819  1
  Ni  Ni22  1  0.83593836  0.50271394  0.16951171  1
  Ni  Ni23  1  0.66949826  0.33588185  0.33571683  1
  Ni  Ni24  1  0.67110040  0.66944837  0.00297132  1
  Ni  Ni25  1  0.83547303  0.83501847  0.16910196  1
  Fe  Fe26  1  0.66976421  0.66850999  0.33491101  1
  Cr  Cr27  1  0.16871496  0.16978212  0.50306972  1
  Fe  Fe28  1  1.00119261  1.00130110  0.67013106  1
  Fe  Fe29  1  0.16908178  0.16795503  0.83484077  1
  Fe  Fe30  1  0.16839296  0.50498859  0.50352118  1
  Fe  Fe31  1  1.00125803  0.33729265  0.67050485  1
  Fe  Fe32  1  0.16946518  0.50336094  0.83499827  1
  Fe  Fe33  1  0.16915538  0.83455136  0.50250233  1
  Fe  Fe34  1  1.00202971  0.66948283  0.66943648  1
  Fe  Fe35  1  0.16834601  0.83664684  0.83589939  1
  Fe  Fe36  1  0.50536501  0.16896403  0.50378364  1
  Fe  Fe37  1  0.33641784  1.00250909  0.66958981  1
  Ni  Ni38  1  0.50285990  0.16930894  0.83480725  1
  Fe  Fe39  1  0.50393766  0.50304462  0.50317185  1
  Fe  Fe40  1  0.33709569  0.33689935  0.67049429  1
  Fe  Fe41  1  0.50450287  0.50202803  0.83552557  1
  Fe  Fe42  1  0.50249776  0.83610846  0.50310762  1
  Fe  Fe43  1  0.33532227  0.66873274  0.66850778  1
  Cr  Cr44  1  0.50329264  0.83586471  0.83723819  1
  Fe  Fe45  1  0.83432088  0.16970591  0.50231643  1
  Fe  Fe46  1  0.67028179  0.00326234  0.66885676  1
  Fe  Fe47  1  0.83476806  0.16903254  0.83580710  1
  Fe  Fe48  1  0.83592059  0.50189161  0.50154308  1
  Fe  Fe49  1  0.66945111  0.33589888  0.66868745  1
  Fe  Fe50  1  0.83443225  0.50262431  0.83704033  1
  Fe  Fe51  1  0.83630785  0.83628570  0.50179120  1
  Fe  Fe52  1  0.67076933  0.66880070  0.66930203  1
  Fe  Fe53  1  0.83669505  0.83638286  0.83720443  1
" 