4555,Ni9Fe84Cr6_17,-226.497141066558, 150.472649794729,Ni9Fe84Cr6,"# generated using pymatgen
 data_Cr4(Fe9Ni)5
_symmetry_space_group_name_H-M   'P 1'
_cell_length_a   7.42826228
_cell_length_b   7.42826228
_cell_length_c   10.50514926
_cell_angle_alpha   90.00000000
_cell_angle_beta   90.00000000
_cell_angle_gamma   90.00000000
_symmetry_Int_Tables_number   1
_chemical_formula_structural   Cr4(Fe9Ni)5
_chemical_formula_sum   'Cr4 Fe45 Ni5'
_cell_volume   579.66447670
_cell_formula_units_Z   1
loop_
 _symmetry_equiv_pos_site_id
 _symmetry_equiv_pos_as_xyz
  1  'x, y, z'
loop_
 _atom_site_type_symbol
 _atom_site_label
 _atom_site_symmetry_multiplicity
 _atom_site_fract_x
 _atom_site_fract_y
 _atom_site_fract_z
 _atom_site_occupancy
  Fe  Fe0  1  0.00431581  0.00261620  1.00235627  1
  Fe  Fe1  1  0.17064519  0.16683504  0.16768359  1
  Cr  Cr2  1  0.00278465  1.00257742  0.33651712  1
  Fe  Fe3  1  1.00254981  0.33595418  1.00170141  1
  Cr  Cr4  1  0.16976509  0.50427813  0.16937862  1
  Cr  Cr5  1  1.00145839  0.33632107  0.33638748  1
  Fe  Fe6  1  0.00379063  0.66926553  1.00100656  1
  Ni  Ni7  1  0.17151632  0.83655244  0.16837957  1
  Fe  Fe8  1  1.00198291  0.66983619  0.33767246  1
  Fe  Fe9  1  0.33560108  1.00170573  0.00298396  1
  Fe  Fe10  1  0.50241152  0.16842811  0.16969505  1
  Fe  Fe11  1  0.33763818  1.00258629  0.33566921  1
  Fe  Fe12  1  0.33650968  0.33601241  1.00144829  1
  Fe  Fe13  1  0.50356320  0.50366511  0.16894189  1
  Fe  Fe14  1  0.33882940  0.33419812  0.33683769  1
  Ni  Ni15  1  0.33676385  0.67025461  1.00139083  1
  Fe  Fe16  1  0.50015878  0.83574154  0.16930416  1
  Fe  Fe17  1  0.33659478  0.67105149  0.33582463  1
  Fe  Fe18  1  0.66791654  0.00294320  1.00230536  1
  Fe  Fe19  1  0.83477236  0.17023075  0.16783656  1
  Ni  Ni20  1  0.66670958  0.00304557  0.33710602  1
  Fe  Fe21  1  0.66877266  0.33653714  0.00269958  1
  Fe  Fe22  1  0.83404903  0.50227984  0.16910259  1
  Fe  Fe23  1  0.66816128  0.33545943  0.33617806  1
  Fe  Fe24  1  0.66786360  0.66835258  1.00174347  1
  Cr  Cr25  1  0.83583120  0.83524311  0.16942518  1
  Fe  Fe26  1  0.66925771  0.66864117  0.33717313  1
  Fe  Fe27  1  0.17037931  0.16993645  0.50431266  1
  Fe  Fe28  1  0.00268128  0.00263631  0.66908922  1
  Fe  Fe29  1  0.16920830  0.16997193  0.83583560  1
  Fe  Fe30  1  0.16949691  0.50337333  0.50381457  1
  Fe  Fe31  1  0.00261333  0.33650791  0.66902336  1
  Ni  Ni32  1  0.16954377  0.50256494  0.83517489  1
  Fe  Fe33  1  0.16949299  0.83452239  0.50279376  1
  Fe  Fe34  1  1.00254578  0.66868844  0.66915231  1
  Fe  Fe35  1  0.16954054  0.83502512  0.83685748  1
  Fe  Fe36  1  0.50346005  0.16954894  0.50226422  1
  Fe  Fe37  1  0.33591333  0.00267688  0.66917675  1
  Fe  Fe38  1  0.50211815  0.16983777  0.83587477  1
  Fe  Fe39  1  0.50316560  0.50258257  0.50255068  1
  Fe  Fe40  1  0.33561995  0.33610489  0.66954448  1
  Fe  Fe41  1  0.50162229  0.50290368  0.83633657  1
  Fe  Fe42  1  0.50355614  0.83570051  0.50233110  1
  Fe  Fe43  1  0.33564765  0.66905040  0.67020437  1
  Fe  Fe44  1  0.50185706  0.83509163  0.83619723  1
  Fe  Fe45  1  0.83398864  0.16954426  0.50395267  1
  Fe  Fe46  1  0.66923702  1.00260847  0.66875832  1
  Fe  Fe47  1  0.83650571  0.16973864  0.83604519  1
  Ni  Ni48  1  0.83554352  0.50360828  0.50262596  1
  Fe  Fe49  1  0.66959915  0.33624189  0.66895372  1
  Fe  Fe50  1  0.83657073  0.50257169  0.83537382  1
  Fe  Fe51  1  0.83478016  0.83482144  0.50296508  1
  Fe  Fe52  1  0.66963911  0.66898260  0.66891548  1
  Fe  Fe53  1  0.83643587  0.83552185  0.83610266  1
" 