4606,Ni9Fe57Cr33_19,-221.886733844798, 169.7919165969,Ni9Fe57Cr33,"# generated using pymatgen
 data_Cr19(Fe6Ni)5
_symmetry_space_group_name_H-M   'P 1'
_cell_length_a   7.49148936
_cell_length_b   7.49148936
_cell_length_c   10.59456585
_cell_angle_alpha   90.00000000
_cell_angle_beta   90.00000000
_cell_angle_gamma   90.00000000
_symmetry_Int_Tables_number   1
_chemical_formula_structural   Cr19(Fe6Ni)5
_chemical_formula_sum   'Cr19 Fe30 Ni5'
_cell_volume   594.59259763
_cell_formula_units_Z   1
loop_
 _symmetry_equiv_pos_site_id
 _symmetry_equiv_pos_as_xyz
  1  'x, y, z'
loop_
 _atom_site_type_symbol
 _atom_site_label
 _atom_site_symmetry_multiplicity
 _atom_site_fract_x
 _atom_site_fract_y
 _atom_site_fract_z
 _atom_site_occupancy
  Fe  Fe0  1  0.99754531  -0.00105255  -0.00158932  1
  Cr  Cr1  1  0.16442204  0.16683772  0.16815506  1
  Fe  Fe2  1  0.99617024  0.99813392  0.33079542  1
  Cr  Cr3  1  0.99798250  0.33370712  0.99779677  1
  Fe  Fe4  1  0.16670281  0.50040134  0.16571895  1
  Cr  Cr5  1  0.99516596  0.33302048  0.33062061  1
  Cr  Cr6  1  -0.00078339  0.66525783  0.99649843  1
  Cr  Cr7  1  0.16495552  0.83212139  0.16547470  1
  Cr  Cr8  1  0.99500418  0.66468132  0.33088935  1
  Cr  Cr9  1  0.33467530  0.99709382  0.99801445  1
  Fe  Fe10  1  0.49878580  0.16228588  0.16702636  1
  Fe  Fe11  1  0.33322368  0.00058866  0.33218654  1
  Cr  Cr12  1  0.33174352  0.33345336  -0.00154849  1
  Fe  Fe13  1  0.49915676  0.49996847  0.16579878  1
  Fe  Fe14  1  0.33517317  0.33080489  0.33329482  1
  Fe  Fe15  1  0.33356329  0.66343640  -0.00157017  1
  Ni  Ni16  1  0.50157787  0.82887475  0.16412109  1
  Cr  Cr17  1  0.33488982  0.66659878  0.33067829  1
  Fe  Fe18  1  0.66796700  0.99516032  0.00088590  1
  Fe  Fe19  1  0.83059597  0.16097384  0.16513649  1
  Cr  Cr20  1  0.66289086  0.99760572  0.32979800  1
  Cr  Cr21  1  0.66501863  0.32915579  0.00223856  1
  Fe  Fe22  1  0.82886075  0.50101878  0.16503816  1
  Fe  Fe23  1  0.66210996  0.33370366  0.33109802  1
  Fe  Fe24  1  0.66431283  0.66398997  -0.00063931  1
  Ni  Ni25  1  0.82893407  0.83050396  0.16197682  1
  Fe  Fe26  1  0.66506177  0.66380832  0.33050178  1
  Fe  Fe27  1  0.16752822  0.16535579  0.49839165  1
  Fe  Fe28  1  0.00108010  0.99816285  0.66614171  1
  Fe  Fe29  1  0.16609708  0.16472982  0.82969933  1
  Cr  Cr30  1  0.16459345  0.49766944  0.49770318  1
  Fe  Fe31  1  0.00065112  0.33401092  0.66629351  1
  Fe  Fe32  1  0.16561432  0.49738486  0.82867173  1
  Cr  Cr33  1  0.16453588  0.83384430  0.49676746  1
  Ni  Ni34  1  0.99524607  0.66484100  0.66707340  1
  Fe  Fe35  1  0.16310144  0.83330641  0.83057313  1
  Ni  Ni36  1  0.49780293  0.16754922  0.49881641  1
  Fe  Fe37  1  0.33158362  0.00032061  0.66409378  1
  Cr  Cr38  1  0.49999362  0.16594052  0.83085738  1
  Fe  Fe39  1  0.50047376  0.49722626  0.49927806  1
  Ni  Ni40  1  0.33298023  0.32926035  0.66405086  1
  Fe  Fe41  1  0.49940789  0.49704534  0.83089570  1
  Fe  Fe42  1  0.49871217  0.83379659  0.49882234  1
  Cr  Cr43  1  0.33079167  0.66537538  0.66644514  1
  Cr  Cr44  1  0.50046220  0.82943829  0.83252137  1
  Cr  Cr45  1  0.83148928  0.16684325  0.50005138  1
  Fe  Fe46  1  0.66271404  0.99794896  0.66354002  1
  Cr  Cr47  1  0.83221347  0.16406012  0.83137520  1
  Fe  Fe48  1  0.82882906  0.49813098  0.50087206  1
  Fe  Fe49  1  0.66369843  0.33443093  0.66430841  1
  Fe  Fe50  1  0.82865124  0.49984603  0.82970604  1
  Cr  Cr51  1  0.83096898  0.82948948  0.50078148  1
  Fe  Fe52  1  0.66489203  0.66262085  0.66525743  1
  Fe  Fe53  1  0.83209122  0.83114727  0.83052555  1
" 