2206,Ni9Fe26Cr64_2,-213.346563389591, 183.873305969943,Ni9Fe26Cr64,"# generated using pymatgen
 data_Cr35Fe14Ni5
_symmetry_space_group_name_H-M   'P 1'
_cell_length_a   7.55203415
_cell_length_b   7.55203415
_cell_length_c   10.68018912
_cell_angle_alpha   90.00000000
_cell_angle_beta   90.00000000
_cell_angle_gamma   90.00000000
_symmetry_Int_Tables_number   1
_chemical_formula_structural   Cr35Fe14Ni5
_chemical_formula_sum   'Cr35 Fe14 Ni5'
_cell_volume   609.12557307
_cell_formula_units_Z   1
loop_
 _symmetry_equiv_pos_site_id
 _symmetry_equiv_pos_as_xyz
  1  'x, y, z'
loop_
 _atom_site_type_symbol
 _atom_site_label
 _atom_site_symmetry_multiplicity
 _atom_site_fract_x
 _atom_site_fract_y
 _atom_site_fract_z
 _atom_site_occupancy
  Cr  Cr0  1  -0.00352049  -0.00412765  0.99313694  1
  Fe  Fe1  1  0.16187348  0.15917246  0.16290490  1
  Cr  Cr2  1  -0.00262474  -0.00480396  0.32828069  1
  Cr  Cr3  1  0.99395000  0.32633206  0.99282835  1
  Cr  Cr4  1  0.16060072  0.49533483  0.16267628  1
  Fe  Fe5  1  -0.00379668  0.32675841  0.32862770  1
  Cr  Cr6  1  -0.00409056  0.66091816  0.99362394  1
  Fe  Fe7  1  0.16328182  0.82911152  0.16241016  1
  Fe  Fe8  1  0.99432451  0.66198684  0.32819021  1
  Cr  Cr9  1  0.32600167  0.99214025  -0.00357768  1
  Cr  Cr10  1  0.49273598  0.15985753  0.16117030  1
  Ni  Ni11  1  0.32560975  0.99359163  0.32653495  1
  Cr  Cr12  1  0.32650870  0.32805120  -0.00533377  1
  Fe  Fe13  1  0.49455281  0.49620839  0.16100753  1
  Cr  Cr14  1  0.32550148  0.32553335  0.32785148  1
  Cr  Cr15  1  0.32829004  0.66293016  -0.00556703  1
  Ni  Ni16  1  0.49151881  0.82816439  0.16116908  1
  Cr  Cr17  1  0.32849091  0.66378352  0.32607729  1
  Cr  Cr18  1  0.66064390  0.99408859  0.99408000  1
  Cr  Cr19  1  0.82780963  0.16118966  0.16014069  1
  Cr  Cr20  1  0.65957505  0.99220195  0.32958060  1
  Cr  Cr21  1  0.66265831  0.32862628  -0.00517083  1
  Cr  Cr22  1  0.82880884  0.49501364  0.16220255  1
  Cr  Cr23  1  0.66221346  0.32910460  0.32624310  1
  Cr  Cr24  1  0.65892524  0.66040685  -0.00536338  1
  Cr  Cr25  1  0.82877218  0.82691790  0.16184147  1
  Cr  Cr26  1  0.66082064  0.66181611  0.32912448  1
  Ni  Ni27  1  0.16115327  0.16124437  0.49519083  1
  Fe  Fe28  1  -0.00531391  -0.00348909  0.66049370  1
  Fe  Fe29  1  0.15930267  0.16194039  0.82541898  1
  Cr  Cr30  1  0.16010514  0.49214943  0.49522212  1
  Ni  Ni31  1  -0.00350671  0.32552714  0.66262678  1
  Fe  Fe32  1  0.15969327  0.49308091  0.82639494  1
  Cr  Cr33  1  0.15912428  0.82898924  0.49295566  1
  Cr  Cr34  1  -0.00559817  0.66008446  0.66157386  1
  Fe  Fe35  1  0.16169875  0.82809435  0.82724873  1
  Cr  Cr36  1  0.49130901  0.16015890  0.49447161  1
  Cr  Cr37  1  0.32592411  -0.00560683  0.66022021  1
  Cr  Cr38  1  0.49405078  0.16119580  0.82747865  1
  Cr  Cr39  1  0.49291984  0.49353382  0.49501226  1
  Fe  Fe40  1  0.32420475  0.32690242  0.66099235  1
  Cr  Cr41  1  0.49266048  0.49359840  0.82802281  1
  Fe  Fe42  1  0.49480321  0.82907320  0.49293879  1
  Cr  Cr43  1  0.32825937  0.66149135  0.66261434  1
  Fe  Fe44  1  0.49349274  0.82772688  0.82826080  1
  Cr  Cr45  1  0.82966642  0.15918859  0.49554489  1
  Cr  Cr46  1  0.66216253  0.99279402  0.65945478  1
  Fe  Fe47  1  0.82975304  0.16249121  0.82642345  1
  Cr  Cr48  1  0.83009795  0.49654848  0.49292840  1
  Cr  Cr49  1  0.66357651  0.32786432  0.66204096  1
  Fe  Fe50  1  0.82938001  0.49251247  0.82681174  1
  Ni  Ni51  1  0.82811859  0.82767314  0.49428978  1
  Cr  Cr52  1  0.66045651  0.66246266  0.65935779  1
  Cr  Cr53  1  0.82922659  0.82861782  0.82747730  1
" 