2684,Ni9Fe62Cr27_5,-223.341825837287, 170.197845638056,Ni9Fe62Cr27,"# generated using pymatgen
 data_Cr16Fe33Ni5
_symmetry_space_group_name_H-M   'P 1'
_cell_length_a   7.47799132
_cell_length_b   7.47799132
_cell_length_c   10.57547675
_cell_angle_alpha   90.00000000
_cell_angle_beta   90.00000000
_cell_angle_gamma   90.00000000
_symmetry_Int_Tables_number   1
_chemical_formula_structural   Cr16Fe33Ni5
_chemical_formula_sum   'Cr16 Fe33 Ni5'
_cell_volume   591.38440583
_cell_formula_units_Z   1
loop_
 _symmetry_equiv_pos_site_id
 _symmetry_equiv_pos_as_xyz
  1  'x, y, z'
loop_
 _atom_site_type_symbol
 _atom_site_label
 _atom_site_symmetry_multiplicity
 _atom_site_fract_x
 _atom_site_fract_y
 _atom_site_fract_z
 _atom_site_occupancy
  Ni  Ni0  1  0.00091363  0.00069744  -0.00011311  1
  Fe  Fe1  1  0.16510534  0.16233629  0.16531421  1
  Fe  Fe2  1  -0.00037062  0.00149966  0.33246179  1
  Fe  Fe3  1  0.00043459  0.32865352  -0.00016030  1
  Cr  Cr4  1  0.16508583  0.49612979  0.16558170  1
  Fe  Fe5  1  0.99918337  0.33064700  0.33450494  1
  Fe  Fe6  1  -0.00045895  0.66849954  0.00035909  1
  Fe  Fe7  1  0.16603105  0.83484718  0.16645993  1
  Fe  Fe8  1  -0.00052100  0.66558442  0.33366800  1
  Fe  Fe9  1  0.33228288  0.00164640  -0.00062610  1
  Fe  Fe10  1  0.49909771  0.16209168  0.16627406  1
  Fe  Fe11  1  0.33362312  0.99804898  0.33261604  1
  Fe  Fe12  1  0.33165715  0.32737526  0.99914067  1
  Cr  Cr13  1  0.49829124  0.49951340  0.16569933  1
  Cr  Cr14  1  0.33193408  0.33068829  0.33360459  1
  Cr  Cr15  1  0.33312005  0.67021449  0.99884612  1
  Fe  Fe16  1  0.49792697  0.83532165  0.16854242  1
  Fe  Fe17  1  0.33169099  0.66998892  0.33401234  1
  Fe  Fe18  1  0.66460480  -0.00070384  0.00013249  1
  Fe  Fe19  1  0.83484777  0.16534600  0.16615279  1
  Ni  Ni20  1  0.66603159  0.00020775  0.33230302  1
  Cr  Cr21  1  0.66752909  0.33168694  -0.00014012  1
  Fe  Fe22  1  0.83375770  0.49976750  0.16574568  1
  Cr  Cr23  1  0.66957851  0.33109536  0.33392306  1
  Fe  Fe24  1  0.66614165  0.66921292  0.99895338  1
  Cr  Cr25  1  0.83117897  0.83441642  0.16549709  1
  Fe  Fe26  1  0.66500601  0.66838527  0.33349305  1
  Fe  Fe27  1  0.16682943  0.16244692  0.49924865  1
  Ni  Ni28  1  0.00236743  -0.00019710  0.66539732  1
  Fe  Fe29  1  0.16499613  0.16190324  0.83294798  1
  Ni  Ni30  1  0.16396924  0.49731948  0.49870176  1
  Cr  Cr31  1  0.99737282  0.32967332  0.66321133  1
  Cr  Cr32  1  0.16759989  0.49521098  0.83265384  1
  Fe  Fe33  1  0.16717834  0.83303444  0.49836847  1
  Fe  Fe34  1  0.00066106  0.66709217  0.66418710  1
  Fe  Fe35  1  0.16455291  0.83609545  0.83272372  1
  Fe  Fe36  1  0.49825712  0.16167780  0.49906226  1
  Fe  Fe37  1  0.33293723  0.00095617  0.66526953  1
  Fe  Fe38  1  0.49802069  0.16453174  0.83258950  1
  Cr  Cr39  1  0.49556750  0.49898370  0.49950434  1
  Fe  Fe40  1  0.33085917  0.32895949  0.66492882  1
  Fe  Fe41  1  0.49906461  0.49788606  0.83354473  1
  Ni  Ni42  1  0.50007425  0.83694322  0.49710622  1
  Cr  Cr43  1  0.33077821  0.66925830  0.66516251  1
  Fe  Fe44  1  0.49841654  0.83588697  0.83221237  1
  Fe  Fe45  1  0.83356617  0.16310598  0.49807426  1
  Fe  Fe46  1  0.66470922  0.00033362  0.66468982  1
  Fe  Fe47  1  0.83492749  0.16446675  0.83309598  1
  Fe  Fe48  1  0.83444545  0.50166820  0.49793070  1
  Cr  Cr49  1  0.66611078  0.33008084  0.66427773  1
  Cr  Cr50  1  0.83544785  0.50243394  0.83423616  1
  Cr  Cr51  1  0.83204648  0.83558653  0.50108273  1
  Cr  Cr52  1  0.66308603  0.66506076  0.66648461  1
  Cr  Cr53  1  0.83294114  0.83688952  0.83154806  1
" 