3776,Ni9Fe26Cr64_5,-213.994101446095, 188.233384503878,Ni9Fe26Cr64,"# generated using pymatgen
 data_Cr35Fe14Ni5
_symmetry_space_group_name_H-M   'P 1'
_cell_length_a   7.55138091
_cell_length_b   7.55138091
_cell_length_c   10.67926529
_cell_angle_alpha   90.00000000
_cell_angle_beta   90.00000000
_cell_angle_gamma   90.00000000
_symmetry_Int_Tables_number   1
_chemical_formula_structural   Cr35Fe14Ni5
_chemical_formula_sum   'Cr35 Fe14 Ni5'
_cell_volume   608.96752127
_cell_formula_units_Z   1
loop_
 _symmetry_equiv_pos_site_id
 _symmetry_equiv_pos_as_xyz
  1  'x, y, z'
loop_
 _atom_site_type_symbol
 _atom_site_label
 _atom_site_symmetry_multiplicity
 _atom_site_fract_x
 _atom_site_fract_y
 _atom_site_fract_z
 _atom_site_occupancy
  Cr  Cr0  1  -0.00529617  0.99064432  0.99149347  1
  Fe  Fe1  1  0.16291568  0.16025776  0.16109557  1
  Cr  Cr2  1  -0.00259865  -0.00514713  0.32818613  1
  Cr  Cr3  1  0.99423621  0.32640091  -0.00036222  1
  Cr  Cr4  1  0.16099711  0.49520779  0.15876142  1
  Fe  Fe5  1  -0.00431673  0.32902938  0.32702235  1
  Fe  Fe6  1  -0.00400757  0.66140240  -0.00556972  1
  Cr  Cr7  1  0.16355069  0.82333516  0.16175857  1
  Cr  Cr8  1  0.99063232  0.66113726  0.32692372  1
  Cr  Cr9  1  0.32601343  -0.00423744  -0.00365592  1
  Fe  Fe10  1  0.49324368  0.16119809  0.16092053  1
  Fe  Fe11  1  0.32829010  -0.00545005  0.32664267  1
  Ni  Ni12  1  0.32946524  0.32938472  -0.00371700  1
  Cr  Cr13  1  0.49143401  0.49894783  0.15920471  1
  Cr  Cr14  1  0.32948357  0.32612434  0.32609201  1
  Ni  Ni15  1  0.32865839  0.66242778  0.99385161  1
  Cr  Cr16  1  0.49433281  0.82838456  0.16508077  1
  Ni  Ni17  1  0.32890272  0.65950842  0.32838771  1
  Fe  Fe18  1  0.65892912  0.99354600  -0.00480865  1
  Cr  Cr19  1  0.82639847  0.16083283  0.16165791  1
  Fe  Fe20  1  0.66142678  -0.00503520  0.32758336  1
  Cr  Cr21  1  0.65817811  0.32900115  -0.00401620  1
  Fe  Fe22  1  0.82611708  0.49739720  0.16064646  1
  Cr  Cr23  1  0.66120409  0.33158850  0.32718901  1
  Fe  Fe24  1  0.65982144  0.66202829  -0.00533027  1
  Cr  Cr25  1  0.82474333  0.82886930  0.15937392  1
  Fe  Fe26  1  0.65985037  0.65994665  0.32836846  1
  Fe  Fe27  1  0.16369095  0.16134667  0.49317862  1
  Cr  Cr28  1  -0.00392132  0.99009884  0.66276428  1
  Cr  Cr29  1  0.15991600  0.16464874  0.82601439  1
  Cr  Cr30  1  0.16175605  0.49502666  0.49418225  1
  Cr  Cr31  1  0.99376132  0.32904713  0.65660292  1
  Cr  Cr32  1  0.16171861  0.49609911  0.83088736  1
  Cr  Cr33  1  0.16287764  0.82602738  0.49265546  1
  Cr  Cr34  1  0.99260590  0.66429053  0.66374289  1
  Ni  Ni35  1  0.16062510  0.82503592  0.83089028  1
  Cr  Cr36  1  0.49733009  0.15858057  0.49505760  1
  Cr  Cr37  1  0.32561508  0.99292855  0.66106034  1
  Cr  Cr38  1  0.49600733  0.16050770  0.82949462  1
  Ni  Ni39  1  0.49448269  0.49596671  0.49144342  1
  Cr  Cr40  1  0.33082722  0.32856708  0.66076499  1
  Cr  Cr41  1  0.49238169  0.49588930  0.82853386  1
  Cr  Cr42  1  0.49490984  0.82641486  0.48893980  1
  Cr  Cr43  1  0.32865983  0.66183914  0.66098244  1
  Cr  Cr44  1  0.49373614  0.82685360  0.82984132  1
  Cr  Cr45  1  0.82957426  0.16026180  0.49547609  1
  Cr  Cr46  1  0.66257454  0.99044875  0.66328950  1
  Cr  Cr47  1  0.82641500  0.16025702  0.82672002  1
  Fe  Fe48  1  0.82639026  0.49629018  0.49242300  1
  Cr  Cr49  1  0.65908966  0.33156181  0.65997940  1
  Cr  Cr50  1  0.82951887  0.49274558  0.83047876  1
  Fe  Fe51  1  0.82657877  0.82694335  0.49239823  1
  Cr  Cr52  1  0.66169606  0.65944726  0.65725351  1
  Fe  Fe53  1  0.82704267  0.82461079  0.83063012  1
" 