5729,Ni9Fe57Cr33_14,-221.640589834875, 170.273010161149,Ni9Fe57Cr33,"# generated using pymatgen
 data_Cr19(Fe6Ni)5
_symmetry_space_group_name_H-M   'P 1'
_cell_length_a   7.48885193
_cell_length_b   7.48885193
_cell_length_c   10.59083596
_cell_angle_alpha   90.00000000
_cell_angle_beta   90.00000000
_cell_angle_gamma   90.00000000
_symmetry_Int_Tables_number   1
_chemical_formula_structural   Cr19(Fe6Ni)5
_chemical_formula_sum   'Cr19 Fe30 Ni5'
_cell_volume   593.96482822
_cell_formula_units_Z   1
loop_
 _symmetry_equiv_pos_site_id
 _symmetry_equiv_pos_as_xyz
  1  'x, y, z'
loop_
 _atom_site_type_symbol
 _atom_site_label
 _atom_site_symmetry_multiplicity
 _atom_site_fract_x
 _atom_site_fract_y
 _atom_site_fract_z
 _atom_site_occupancy
  Cr  Cr0  1  0.00021267  0.99464327  -0.00064213  1
  Fe  Fe1  1  0.16830828  0.16416707  0.16591926  1
  Cr  Cr2  1  0.00003531  0.99742105  0.33375267  1
  Fe  Fe3  1  0.99636875  0.33512958  0.99706735  1
  Cr  Cr4  1  0.16367706  0.49655300  0.16573422  1
  Fe  Fe5  1  0.99648420  0.33176215  0.33489520  1
  Fe  Fe6  1  -0.00005387  0.66269439  0.99827088  1
  Fe  Fe7  1  0.16675222  0.83142840  0.16657060  1
  Cr  Cr8  1  0.99688172  0.66461631  0.33035612  1
  Fe  Fe9  1  0.33167023  0.99565606  -0.00094440  1
  Fe  Fe10  1  0.49729313  0.16639170  0.16778907  1
  Fe  Fe11  1  0.33153178  0.00067423  0.33451575  1
  Cr  Cr12  1  0.33283233  0.33260529  0.99773298  1
  Cr  Cr13  1  0.49738097  0.49905936  0.16776826  1
  Fe  Fe14  1  0.33100005  0.33097699  0.33510796  1
  Fe  Fe15  1  0.33056270  0.66765645  0.99703643  1
  Cr  Cr16  1  0.49733619  0.83183867  0.17033698  1
  Fe  Fe17  1  0.33012733  0.66321253  0.33497639  1
  Cr  Cr18  1  0.66425402  0.99797992  0.00013122  1
  Cr  Cr19  1  0.83355607  0.16779704  0.16439251  1
  Fe  Fe20  1  0.66560257  0.00178923  0.33238181  1
  Fe  Fe21  1  0.66740460  0.33379120  -0.00098275  1
  Fe  Fe22  1  0.83061593  0.49777677  0.16577988  1
  Ni  Ni23  1  0.66241851  0.33300856  0.33344708  1
  Cr  Cr24  1  0.66772057  0.66378230  -0.00120926  1
  Fe  Fe25  1  0.83204917  0.82969749  0.16685940  1
  Fe  Fe26  1  0.66590034  0.66167058  0.33303367  1
  Fe  Fe27  1  0.16473051  0.16631108  0.49903903  1
  Fe  Fe28  1  0.00092333  0.00141567  0.66158708  1
  Cr  Cr29  1  0.16262402  0.16568301  0.83238269  1
  Fe  Fe30  1  0.16528249  0.50102166  0.49752733  1
  Ni  Ni31  1  0.99822050  0.33698222  0.66170150  1
  Fe  Fe32  1  0.16201288  0.49985990  0.83091533  1
  Ni  Ni33  1  0.16611272  0.83196380  0.49992145  1
  Fe  Fe34  1  0.00083292  0.66299481  0.66378483  1
  Fe  Fe35  1  0.16571699  0.82796677  0.82999209  1
  Fe  Fe36  1  0.49886339  0.16575906  0.49608653  1
  Cr  Cr37  1  0.33149749  0.99798735  0.66619881  1
  Cr  Cr38  1  0.50074096  0.16579395  0.83462891  1
  Ni  Ni39  1  0.49795693  0.49679544  0.49750294  1
  Cr  Cr40  1  0.33239303  0.33453810  0.66219086  1
  Fe  Fe41  1  0.50048636  0.50008213  0.83001463  1
  Cr  Cr42  1  0.49765092  0.82758015  0.49679175  1
  Fe  Fe43  1  0.33061376  0.66375958  0.66420149  1
  Fe  Fe44  1  0.49770306  0.82787901  0.83152382  1
  Fe  Fe45  1  0.83136646  0.16952098  0.49851735  1
  Cr  Cr46  1  0.66487281  -0.00114985  0.66361101  1
  Cr  Cr47  1  0.83328199  0.16946824  0.82806385  1
  Fe  Fe48  1  0.83013405  0.49843160  0.49929141  1
  Fe  Fe49  1  0.66674132  0.33505508  0.66234134  1
  Ni  Ni50  1  0.83267719  0.49917493  0.83095193  1
  Cr  Cr51  1  0.83197731  0.83228504  0.49993626  1
  Fe  Fe52  1  0.66439886  0.65943706  0.66541182  1
  Cr  Cr53  1  0.83365252  0.83101125  0.82719442  1
" 