6850,Ni9Fe87Cr2_18,-226.955408640773, 150.583152835061,Ni9Fe87Cr2,"# generated using pymatgen
 data_Cr2Fe47Ni5
_symmetry_space_group_name_H-M   'P 1'
_cell_length_a   7.41801297
_cell_length_b   7.41801297
_cell_length_c   10.49065454
_cell_angle_alpha   90.00000000
_cell_angle_beta   90.00000000
_cell_angle_gamma   90.00000000
_symmetry_Int_Tables_number   1
_chemical_formula_structural   Cr2Fe47Ni5
_chemical_formula_sum   'Cr2 Fe47 Ni5'
_cell_volume   577.26837015
_cell_formula_units_Z   1
loop_
 _symmetry_equiv_pos_site_id
 _symmetry_equiv_pos_as_xyz
  1  'x, y, z'
loop_
 _atom_site_type_symbol
 _atom_site_label
 _atom_site_symmetry_multiplicity
 _atom_site_fract_x
 _atom_site_fract_y
 _atom_site_fract_z
 _atom_site_occupancy
  Fe  Fe0  1  1.00277348  1.00329896  0.00389418  1
  Fe  Fe1  1  0.16750507  0.16970839  0.17012328  1
  Ni  Ni2  1  0.00337865  0.00497368  0.33632411  1
  Fe  Fe3  1  1.00311200  0.33644563  0.00363015  1
  Fe  Fe4  1  0.17056165  0.50165305  0.16953667  1
  Fe  Fe5  1  1.00323920  0.33444101  0.33654131  1
  Fe  Fe6  1  1.00310925  0.67017039  1.00312188  1
  Fe  Fe7  1  0.17030082  0.83855816  0.16993991  1
  Cr  Cr8  1  0.00346122  0.67085336  0.33680636  1
  Fe  Fe9  1  0.33588132  1.00247699  1.00240559  1
  Cr  Cr10  1  0.50439343  0.16989643  0.17003688  1
  Fe  Fe11  1  0.33486629  1.00191842  0.33773220  1
  Fe  Fe12  1  0.33581044  0.33753517  1.00240307  1
  Fe  Fe13  1  0.50390767  0.50446034  0.16993498  1
  Fe  Fe14  1  0.33486171  0.33749235  0.33772997  1
  Fe  Fe15  1  0.33663497  0.66990282  0.00344098  1
  Fe  Fe16  1  0.50383631  0.83541316  0.16993247  1
  Fe  Fe17  1  0.33725946  0.67050483  0.33713728  1
  Fe  Fe18  1  0.67126197  1.00247495  1.00240138  1
  Ni  Ni19  1  0.83787343  0.16979843  0.16985148  1
  Fe  Fe20  1  0.67181963  1.00258489  0.33713635  1
  Fe  Fe21  1  0.67099631  0.33720107  1.00280909  1
  Fe  Fe22  1  0.83544799  0.50165832  0.16907439  1
  Fe  Fe23  1  0.67182281  0.33682601  0.33713643  1
  Fe  Fe24  1  0.67017104  0.67024152  1.00302805  1
  Fe  Fe25  1  0.83578238  0.83848208  0.16880562  1
  Fe  Fe26  1  0.66875021  0.67050595  0.33653791  1
  Fe  Fe27  1  0.16977579  0.16970461  0.50305113  1
  Fe  Fe28  1  1.00322890  1.00274441  0.66948252  1
  Fe  Fe29  1  0.16953733  0.16943792  0.83673944  1
  Ni  Ni30  1  0.17107627  0.50340307  0.50431171  1
  Fe  Fe31  1  0.00356850  0.33700118  0.66974608  1
  Fe  Fe32  1  0.16943649  0.50376818  0.83617543  1
  Ni  Ni33  1  0.17070596  0.83637310  0.50462060  1
  Fe  Fe34  1  0.00356309  0.67016965  0.66955991  1
  Fe  Fe35  1  0.16943192  0.83670920  0.83617502  1
  Fe  Fe36  1  0.50217330  0.17004026  0.50322078  1
  Fe  Fe37  1  0.33651728  1.00311322  0.66977960  1
  Fe  Fe38  1  0.50376521  0.16943989  0.83679107  1
  Fe  Fe39  1  0.50225084  0.50383741  0.50324084  1
  Fe  Fe40  1  0.33644577  0.33689901  0.66978230  1
  Fe  Fe41  1  0.50390794  0.50380807  0.83673969  1
  Fe  Fe42  1  0.50217847  0.83603781  0.50324362  1
  Fe  Fe43  1  0.33608373  0.66990228  0.66934513  1
  Fe  Fe44  1  0.50391083  0.83666735  0.83673959  1
  Fe  Fe45  1  0.83796672  0.16977827  0.50237766  1
  Fe  Fe46  1  0.67016955  1.00311018  0.67037870  1
  Fe  Fe47  1  0.83661276  0.16943590  0.83720127  1
  Fe  Fe48  1  0.83680529  0.50301019  0.50420584  1
  Fe  Fe49  1  0.66990265  0.33656368  0.66996889  1
  Fe  Fe50  1  0.83657100  0.50391440  0.83663632  1
  Fe  Fe51  1  0.83713978  0.83713172  0.50447346  1
  Fe  Fe52  1  0.67027095  0.67024180  0.67034965  1
  Ni  Ni53  1  0.83666075  0.83675662  0.83668754  1
" 