1005,Ni9Fe62Cr27_10,-222.884102652804, 159.808238713784,Ni9Fe62Cr27,"# generated using pymatgen
 data_Cr16Fe33Ni5
_symmetry_space_group_name_H-M   'P 1'
_cell_length_a   7.48354829
_cell_length_b   7.48354829
_cell_length_c   10.58333548
_cell_angle_alpha   90.00000000
_cell_angle_beta   90.00000000
_cell_angle_gamma   90.00000000
_symmetry_Int_Tables_number   1
_chemical_formula_structural   Cr16Fe33Ni5
_chemical_formula_sum   'Cr16 Fe33 Ni5'
_cell_volume   592.70377512
_cell_formula_units_Z   1
loop_
 _symmetry_equiv_pos_site_id
 _symmetry_equiv_pos_as_xyz
  1  'x, y, z'
loop_
 _atom_site_type_symbol
 _atom_site_label
 _atom_site_symmetry_multiplicity
 _atom_site_fract_x
 _atom_site_fract_y
 _atom_site_fract_z
 _atom_site_occupancy
  Cr  Cr0  1  -0.00079908  0.99644402  -0.00037934  1
  Fe  Fe1  1  0.16639876  0.16722283  0.16804943  1
  Fe  Fe2  1  0.99874161  0.00041832  0.33269544  1
  Fe  Fe3  1  0.00058791  0.33539572  0.00105228  1
  Ni  Ni4  1  0.16653078  0.49952827  0.16343492  1
  Fe  Fe5  1  0.00028405  0.33195326  0.33141014  1
  Ni  Ni6  1  -0.00049198  0.66171495  -0.00026090  1
  Fe  Fe7  1  0.16797730  0.82940572  0.16538895  1
  Cr  Cr8  1  0.99812721  0.66434001  0.33019647  1
  Cr  Cr9  1  0.33517440  -0.00076158  0.00095141  1
  Fe  Fe10  1  0.49801128  0.16579204  0.16836250  1
  Fe  Fe11  1  0.33375961  0.99870403  0.33117019  1
  Cr  Cr12  1  0.33222993  0.33174267  0.99796974  1
  Cr  Cr13  1  0.50039990  0.50072136  0.16745756  1
  Fe  Fe14  1  0.33181461  0.33257497  0.33169666  1
  Ni  Ni15  1  0.33011484  0.66459904  -0.00022587  1
  Fe  Fe16  1  0.49715989  0.83088854  0.16739769  1
  Fe  Fe17  1  0.33391706  0.66579449  0.33068578  1
  Cr  Cr18  1  0.66234578  -0.00071340  0.99641034  1
  Cr  Cr19  1  0.83163264  0.16838490  0.16618232  1
  Fe  Fe20  1  0.66430089  0.99761499  0.33360840  1
  Fe  Fe21  1  0.66545228  0.33399805  0.00001747  1
  Fe  Fe22  1  0.83341781  0.49925770  0.16493695  1
  Fe  Fe23  1  0.66468666  0.33254894  0.33314363  1
  Fe  Fe24  1  0.66436857  0.66632427  0.00004962  1
  Cr  Cr25  1  0.83126211  0.83180589  0.16528090  1
  Ni  Ni26  1  0.66385528  0.66666634  0.33388074  1
  Fe  Fe27  1  0.16543945  0.16599933  0.49910489  1
  Fe  Fe28  1  0.99698881  0.99755930  0.66403694  1
  Cr  Cr29  1  0.16475879  0.16535000  0.82965161  1
  Cr  Cr30  1  0.16860829  0.49940370  0.50207524  1
  Fe  Fe31  1  0.99874181  0.33312669  0.66476475  1
  Fe  Fe32  1  0.16413966  0.50032716  0.83219920  1
  Cr  Cr33  1  0.16666318  0.83395189  0.49816096  1
  Ni  Ni34  1  0.99717924  0.66580023  0.66705483  1
  Cr  Cr35  1  0.16665047  0.83005937  0.83248911  1
  Fe  Fe36  1  0.49840396  0.16591288  0.49889362  1
  Fe  Fe37  1  0.33425585  0.99866851  0.66475314  1
  Fe  Fe38  1  0.49916266  0.16530584  0.82914167  1
  Fe  Fe39  1  0.49879293  0.49970803  0.49833753  1
  Fe  Fe40  1  0.33283308  0.33198353  0.66511743  1
  Cr  Cr41  1  0.49837497  0.50062954  0.83080640  1
  Fe  Fe42  1  0.50067954  0.83115542  0.49835924  1
  Fe  Fe43  1  0.33295032  0.66611423  0.66626607  1
  Fe  Fe44  1  0.49983122  0.83170194  0.83097365  1
  Fe  Fe45  1  0.83282381  0.16366455  0.49880455  1
  Fe  Fe46  1  0.66552553  0.99714091  0.66494387  1
  Cr  Cr47  1  0.83170122  0.16612111  0.83164991  1
  Cr  Cr48  1  0.82925479  0.49757570  0.49723387  1
  Fe  Fe49  1  0.66491601  0.33171381  0.66416313  1
  Cr  Cr50  1  0.83200138  0.49894730  0.83669109  1
  Fe  Fe51  1  0.83069611  0.83284031  0.49929085  1
  Fe  Fe52  1  0.66612854  0.66766534  0.66388763  1
  Fe  Fe53  1  0.83170528  0.82967401  0.83105239  1
" 