3836,Ni9Fe87Cr2_6,-226.932258081345, 150.21672757765,Ni9Fe87Cr2,"# generated using pymatgen
 data_Cr2Fe47Ni5
_symmetry_space_group_name_H-M   'P 1'
_cell_length_a   7.41833824
_cell_length_b   7.41833824
_cell_length_c   10.49111455
_cell_angle_alpha   90.00000000
_cell_angle_beta   90.00000000
_cell_angle_gamma   90.00000000
_symmetry_Int_Tables_number   1
_chemical_formula_structural   Cr2Fe47Ni5
_chemical_formula_sum   'Cr2 Fe47 Ni5'
_cell_volume   577.34431169
_cell_formula_units_Z   1
loop_
 _symmetry_equiv_pos_site_id
 _symmetry_equiv_pos_as_xyz
  1  'x, y, z'
loop_
 _atom_site_type_symbol
 _atom_site_label
 _atom_site_symmetry_multiplicity
 _atom_site_fract_x
 _atom_site_fract_y
 _atom_site_fract_z
 _atom_site_occupancy
  Cr  Cr0  1  0.00387350  0.00350058  0.00328570  1
  Fe  Fe1  1  0.16987888  0.17163654  0.16973649  1
  Fe  Fe2  1  1.00207548  1.00205438  0.33617701  1
  Fe  Fe3  1  0.00328308  0.33822821  1.00266878  1
  Fe  Fe4  1  0.16994701  0.50382266  0.17049146  1
  Fe  Fe5  1  0.00404947  0.33750908  0.33705657  1
  Fe  Fe6  1  1.00321113  0.66834104  0.00382304  1
  Fe  Fe7  1  0.16994682  0.83438934  0.17049033  1
  Ni  Ni8  1  1.00312313  0.66935700  0.33601843  1
  Fe  Fe9  1  0.33829953  0.00335539  1.00289724  1
  Fe  Fe10  1  0.50419711  0.17076015  0.16954870  1
  Cr  Cr11  1  0.33687912  1.00273511  0.33577857  1
  Fe  Fe12  1  0.33646177  0.33635875  0.00338604  1
  Fe  Fe13  1  0.50298207  0.50355343  0.17010681  1
  Fe  Fe14  1  0.33642029  0.33916733  0.33674690  1
  Fe  Fe15  1  0.33645994  0.67013481  0.00385505  1
  Fe  Fe16  1  0.50385526  0.83553473  0.16920315  1
  Ni  Ni17  1  0.33641950  0.66876763  0.33670806  1
  Fe  Fe18  1  0.66831213  0.00328358  0.00338672  1
  Fe  Fe19  1  0.83577590  0.17076083  0.17068218  1
  Fe  Fe20  1  0.67146011  1.00247393  0.33678602  1
  Fe  Fe21  1  0.67010387  0.33639052  0.00335399  1
  Fe  Fe22  1  0.83691906  0.50348066  0.17011951  1
  Fe  Fe23  1  0.66938096  0.33720096  0.33681636  1
  Fe  Fe24  1  0.67017769  0.67017492  1.00313837  1
  Fe  Fe25  1  0.83604589  0.83560706  0.17102183  1
  Fe  Fe26  1  0.66979758  0.67017545  0.33654758  1
  Fe  Fe27  1  0.16965405  0.17078277  0.50481294  1
  Fe  Fe28  1  0.00386096  0.00382703  0.67028693  1
  Fe  Fe29  1  0.17071946  0.17079242  0.83530237  1
  Fe  Fe30  1  0.17017090  0.50301159  0.50291224  1
  Ni  Ni31  1  1.00227826  0.33668029  0.67069523  1
  Fe  Fe32  1  0.16957673  0.50301285  0.83644632  1
  Fe  Fe33  1  0.16999220  0.83604954  0.50377964  1
  Fe  Fe34  1  0.00375123  0.66997815  0.66950872  1
  Fe  Fe35  1  0.17113342  0.83604300  0.83557574  1
  Ni  Ni36  1  0.50397324  0.17078360  0.50426835  1
  Ni  Ni37  1  0.33710965  1.00307963  0.67108242  1
  Fe  Fe38  1  0.50301241  0.16957685  0.83590853  1
  Fe  Fe39  1  0.50305274  0.50301694  0.50291164  1
  Fe  Fe40  1  0.33633736  0.33570182  0.66971883  1
  Fe  Fe41  1  0.50335152  0.50342639  0.83683155  1
  Fe  Fe42  1  0.50357734  0.83639275  0.50419938  1
  Fe  Fe43  1  0.33607762  0.66998025  0.66951806  1
  Fe  Fe44  1  0.50301199  0.83684487  0.83644711  1
  Fe  Fe45  1  0.83628330  0.17026071  0.50352196  1
  Fe  Fe46  1  0.66967989  0.00409056  0.66967920  1
  Fe  Fe47  1  0.83611679  0.17113079  0.83564862  1
  Fe  Fe48  1  0.83662216  0.50267370  0.50335487  1
  Fe  Fe49  1  0.66968017  0.33581236  0.66968038  1
  Fe  Fe50  1  0.83691811  0.50301385  0.83637472  1
  Fe  Fe51  1  0.83628061  0.83691444  0.50290640  1
  Fe  Fe52  1  0.67002012  0.66994761  0.67016317  1
  Fe  Fe53  1  0.83570551  0.83570519  0.83591784  1
" 