6494,Ni9Fe62Cr27_11,-223.332436210719, 166.198676237145,Ni9Fe62Cr27,"# generated using pymatgen
 data_Cr16Fe33Ni5
_symmetry_space_group_name_H-M   'P 1'
_cell_length_a   7.48746342
_cell_length_b   7.48746342
_cell_length_c   10.58887232
_cell_angle_alpha   90.00000000
_cell_angle_beta   90.00000000
_cell_angle_gamma   90.00000000
_symmetry_Int_Tables_number   1
_chemical_formula_structural   Cr16Fe33Ni5
_chemical_formula_sum   'Cr16 Fe33 Ni5'
_cell_volume   593.63450936
_cell_formula_units_Z   1
loop_
 _symmetry_equiv_pos_site_id
 _symmetry_equiv_pos_as_xyz
  1  'x, y, z'
loop_
 _atom_site_type_symbol
 _atom_site_label
 _atom_site_symmetry_multiplicity
 _atom_site_fract_x
 _atom_site_fract_y
 _atom_site_fract_z
 _atom_site_occupancy
  Fe  Fe0  1  -0.00089068  -0.00133466  0.99707819  1
  Fe  Fe1  1  0.16065886  0.16388425  0.16473595  1
  Fe  Fe2  1  0.99785717  -0.00030259  0.33442956  1
  Fe  Fe3  1  -0.00057052  0.32918459  0.99807915  1
  Fe  Fe4  1  0.16575772  0.50088137  0.16520223  1
  Fe  Fe5  1  0.00011680  0.33030370  0.33244882  1
  Fe  Fe6  1  0.00069609  0.66832264  0.99747548  1
  Fe  Fe7  1  0.16388829  0.83117161  0.16523867  1
  Fe  Fe8  1  0.00149710  0.66628207  0.33369556  1
  Fe  Fe9  1  0.32944968  0.99658920  0.99681485  1
  Cr  Cr10  1  0.49865741  0.16307531  0.16370967  1
  Cr  Cr11  1  0.32837731  0.99824649  0.33092140  1
  Cr  Cr12  1  0.33165010  0.33028660  0.00000631  1
  Fe  Fe13  1  0.49862763  0.50110569  0.16426237  1
  Cr  Cr14  1  0.33132326  0.33212478  0.33312414  1
  Fe  Fe15  1  0.32977895  0.66668614  0.99846822  1
  Cr  Cr16  1  0.49812332  0.83237032  0.16536670  1
  Fe  Fe17  1  0.33068291  0.66488120  0.33332034  1
  Fe  Fe18  1  0.66688791  -0.00111862  0.99671505  1
  Fe  Fe19  1  0.83401116  0.16386478  0.16449976  1
  Fe  Fe20  1  0.66591034  -0.00093189  0.33429091  1
  Fe  Fe21  1  0.66699766  0.32991691  0.99833424  1
  Cr  Cr22  1  0.83415650  0.49907412  0.16297350  1
  Cr  Cr23  1  0.66585788  0.33239832  0.33061773  1
  Fe  Fe24  1  0.66541550  0.66763172  0.99731064  1
  Cr  Cr25  1  0.83252954  0.83272115  0.16812960  1
  Fe  Fe26  1  0.66424829  0.66647693  0.33435047  1
  Fe  Fe27  1  0.16190047  0.16372890  0.49998274  1
  Ni  Ni28  1  -0.00057937  0.99854214  0.66538761  1
  Fe  Fe29  1  0.16217251  0.16386480  0.83166828  1
  Fe  Fe30  1  0.16528828  0.50021756  0.50032111  1
  Ni  Ni31  1  -0.00064612  0.32830402  0.66449402  1
  Cr  Cr32  1  0.16472670  0.49702231  0.82786322  1
  Ni  Ni33  1  0.16510253  0.83286728  0.49822992  1
  Cr  Cr34  1  0.99733313  0.67001535  0.66579086  1
  Fe  Fe35  1  0.16367102  0.83285141  0.83250602  1
  Fe  Fe36  1  0.49939252  0.16217665  0.49891725  1
  Cr  Cr37  1  0.33174075  0.99775709  0.66746712  1
  Fe  Fe38  1  0.50007988  0.16253031  0.83345654  1
  Fe  Fe39  1  0.49698865  0.50145395  0.49935411  1
  Fe  Fe40  1  0.32979004  0.33038592  0.66272867  1
  Cr  Cr41  1  0.49670012  0.49819814  0.83202506  1
  Fe  Fe42  1  0.49859164  0.83226139  0.49755853  1
  Fe  Fe43  1  0.33061350  0.66632351  0.66295548  1
  Fe  Fe44  1  0.49946473  0.83259826  0.83391772  1
  Fe  Fe45  1  0.83448687  0.16256973  0.49937105  1
  Fe  Fe46  1  0.66961716  0.99833033  0.66521112  1
  Fe  Fe47  1  0.83436775  0.16381064  0.83146563  1
  Cr  Cr48  1  0.83451630  0.49837261  0.49934842  1
  Cr  Cr49  1  0.66479956  0.33034870  0.66606791  1
  Cr  Cr50  1  0.83395018  0.49876917  0.83368872  1
  Ni  Ni51  1  0.83300296  0.83491763  0.49697684  1
  Cr  Cr52  1  0.66563987  0.66823815  0.66529859  1
  Ni  Ni53  1  0.83197217  0.83613191  0.83272798  1
" 