3917,Ni9Fe87Cr2_8,-226.856615975591, 149.597261988651,Ni9Fe87Cr2,"# generated using pymatgen
 data_Cr2Fe47Ni5
_symmetry_space_group_name_H-M   'P 1'
_cell_length_a   7.41817411
_cell_length_b   7.41817411
_cell_length_c   10.49088243
_cell_angle_alpha   90.00000000
_cell_angle_beta   90.00000000
_cell_angle_gamma   90.00000000
_symmetry_Int_Tables_number   1
_chemical_formula_structural   Cr2Fe47Ni5
_chemical_formula_sum   'Cr2 Fe47 Ni5'
_cell_volume   577.30599137
_cell_formula_units_Z   1
loop_
 _symmetry_equiv_pos_site_id
 _symmetry_equiv_pos_as_xyz
  1  'x, y, z'
loop_
 _atom_site_type_symbol
 _atom_site_label
 _atom_site_symmetry_multiplicity
 _atom_site_fract_x
 _atom_site_fract_y
 _atom_site_fract_z
 _atom_site_occupancy
  Fe  Fe0  1  0.00409842  0.00407615  1.00301138  1
  Fe  Fe1  1  0.16988999  0.16998722  0.16933866  1
  Ni  Ni2  1  1.00281375  0.00332234  0.33625266  1
  Fe  Fe3  1  1.00323887  0.33567230  0.00386838  1
  Fe  Fe4  1  0.17029026  0.50310528  0.16948368  1
  Fe  Fe5  1  1.00322499  0.33624422  0.33655505  1
  Fe  Fe6  1  1.00294746  0.67012792  0.00416253  1
  Fe  Fe7  1  0.16963351  0.83679112  0.17033000  1
  Fe  Fe8  1  0.00332429  0.67040672  0.33659158  1
  Fe  Fe9  1  0.33648290  0.00404138  1.00297971  1
  Fe  Fe10  1  0.50310824  0.17028472  0.17022926  1
  Fe  Fe11  1  0.33643089  0.00345676  0.33691515  1
  Ni  Ni12  1  0.33790172  0.33658680  0.00366260  1
  Fe  Fe13  1  0.50300870  0.50310846  0.16961117  1
  Fe  Fe14  1  0.33636181  0.33587210  0.33639484  1
  Fe  Fe15  1  0.33751817  0.67027840  0.00396861  1
  Fe  Fe16  1  0.50336355  0.83649199  0.16989300  1
  Fe  Fe17  1  0.33603615  0.67055144  0.33684822  1
  Fe  Fe18  1  0.66930292  0.00375117  0.00336485  1
  Fe  Fe19  1  0.83688430  0.16962994  0.17028939  1
  Fe  Fe20  1  0.67014831  0.00355705  0.33681312  1
  Fe  Fe21  1  0.66946021  0.33671691  0.00333790  1
  Fe  Fe22  1  0.83658710  0.50336069  0.16993097  1
  Fe  Fe23  1  0.67029551  0.33584330  0.33695539  1
  Fe  Fe24  1  0.66941549  0.66941366  1.00323094  1
  Fe  Fe25  1  0.83688391  0.83689214  0.17021542  1
  Fe  Fe26  1  0.67052191  0.67048077  0.33658765  1
  Fe  Fe27  1  0.16997918  0.16946568  0.50387220  1
  Ni  Ni28  1  1.00288978  0.00382460  0.67059506  1
  Ni  Ni29  1  0.17041765  0.16870381  0.83617879  1
  Fe  Fe30  1  0.16979493  0.50201393  0.50261781  1
  Fe  Fe31  1  1.00287275  0.33538949  0.66945933  1
  Cr  Cr32  1  0.16889976  0.50164278  0.83755371  1
  Fe  Fe33  1  0.16913343  0.83839884  0.50243378  1
  Fe  Fe34  1  1.00076770  0.67122869  0.66913352  1
  Fe  Fe35  1  0.16881173  0.83984601  0.83712280  1
  Ni  Ni36  1  0.50305898  0.16959623  0.50352915  1
  Fe  Fe37  1  0.33615095  0.00537302  0.66998627  1
  Fe  Fe38  1  0.50228316  0.17050624  0.83640203  1
  Fe  Fe39  1  0.50409256  0.50194552  0.50249375  1
  Fe  Fe40  1  0.33693195  0.33312705  0.66965820  1
  Fe  Fe41  1  0.50498691  0.50175739  0.83777666  1
  Fe  Fe42  1  0.50412281  0.83783020  0.50246549  1
  Cr  Cr43  1  0.33794112  0.66991714  0.66968304  1
  Fe  Fe44  1  0.50345417  0.83761989  0.83752643  1
  Fe  Fe45  1  0.83656091  0.16943555  0.50322177  1
  Fe  Fe46  1  0.66992433  1.00326481  0.66970647  1
  Fe  Fe47  1  0.83768523  0.16985549  0.83637237  1
  Fe  Fe48  1  0.83599774  0.50280235  0.50335352  1
  Fe  Fe49  1  0.67007456  0.33616455  0.66959136  1
  Fe  Fe50  1  0.83542550  0.50286918  0.83659755  1
  Fe  Fe51  1  0.83662737  0.83764645  0.50332049  1
  Fe  Fe52  1  0.67220496  0.67045176  0.67006400  1
  Fe  Fe53  1  0.83762192  0.83715776  0.83634769  1
" 