6635,Ni9Fe87Cr2_5,-227.186932898681, 150.495421990856,Ni9Fe87Cr2,"# generated using pymatgen
 data_Cr2Fe47Ni5
_symmetry_space_group_name_H-M   'P 1'
_cell_length_a   7.42029304
_cell_length_b   7.42029304
_cell_length_c   10.49387905
_cell_angle_alpha   90.00000000
_cell_angle_beta   90.00000000
_cell_angle_gamma   90.00000000
_symmetry_Int_Tables_number   1
_chemical_formula_structural   Cr2Fe47Ni5
_chemical_formula_sum   'Cr2 Fe47 Ni5'
_cell_volume   577.80083869
_cell_formula_units_Z   1
loop_
 _symmetry_equiv_pos_site_id
 _symmetry_equiv_pos_as_xyz
  1  'x, y, z'
loop_
 _atom_site_type_symbol
 _atom_site_label
 _atom_site_symmetry_multiplicity
 _atom_site_fract_x
 _atom_site_fract_y
 _atom_site_fract_z
 _atom_site_occupancy
  Fe  Fe0  1  1.00252616  1.00259604  0.00321532  1
  Fe  Fe1  1  0.16919990  0.16919996  0.16981680  1
  Fe  Fe2  1  1.00264758  1.00257750  0.33614026  1
  Fe  Fe3  1  0.00350115  0.33676409  1.00293993  1
  Fe  Fe4  1  0.16930216  0.50372586  0.16933096  1
  Fe  Fe5  1  1.00292591  0.33681370  0.33644352  1
  Fe  Fe6  1  1.00284400  0.67009263  1.00289439  1
  Fe  Fe7  1  0.16933792  0.83652594  0.16998857  1
  Fe  Fe8  1  0.00456033  0.67006192  0.33624125  1
  Fe  Fe9  1  0.33655495  0.00322201  0.00329132  1
  Fe  Fe10  1  0.50372608  0.16930224  0.17042475  1
  Fe  Fe11  1  0.33701666  0.00319888  0.33678869  1
  Fe  Fe12  1  0.33620673  0.33675976  1.00232502  1
  Fe  Fe13  1  0.50292392  0.50292349  0.16919970  1
  Fe  Fe14  1  0.33613806  0.33559124  0.33645845  1
  Fe  Fe15  1  0.33623503  0.66946757  1.00297270  1
  Fe  Fe16  1  0.50278866  0.83722695  0.16900244  1
  Fe  Fe17  1  0.33389169  0.67065518  0.33557296  1
  Fe  Fe18  1  0.67037095  1.00256564  0.00317585  1
  Fe  Fe19  1  0.83652589  0.16933810  0.16984593  1
  Fe  Fe20  1  0.66978998  0.00483333  0.33651196  1
  Fe  Fe21  1  0.66974614  0.33644352  0.00332351  1
  Fe  Fe22  1  0.83722632  0.50278914  0.16914615  1
  Fe  Fe23  1  0.67038372  0.33369002  0.33591707  1
  Fe  Fe24  1  0.67037516  0.67044500  0.00344511  1
  Ni  Ni25  1  0.83758687  0.83758677  0.16922977  1
  Cr  Cr26  1  0.67077580  0.67107158  0.33552717  1
  Fe  Fe27  1  0.17086875  0.17024843  0.50335507  1
  Fe  Fe28  1  0.00334644  0.00334631  0.67009582  1
  Fe  Fe29  1  0.16947203  0.17009754  0.83628107  1
  Fe  Fe30  1  0.16894966  0.50235906  0.50394505  1
  Fe  Fe31  1  0.00405099  0.33686277  0.67006671  1
  Ni  Ni32  1  0.17083057  0.50253060  0.83598363  1
  Fe  Fe33  1  0.17065976  0.83684190  0.50297854  1
  Fe  Fe34  1  0.00366532  0.66924202  0.67031395  1
  Fe  Fe35  1  0.16925830  0.83592514  0.83648412  1
  Ni  Ni36  1  0.50316078  0.16887388  0.50259231  1
  Fe  Fe37  1  0.33686026  0.00404845  0.66936904  1
  Fe  Fe38  1  0.50287712  0.17012139  0.83563061  1
  Cr  Cr39  1  0.50138236  0.50078615  0.50448134  1
  Ni  Ni40  1  0.33537871  0.33537852  0.67091885  1
  Fe  Fe41  1  0.50286871  0.50349279  0.83605028  1
  Fe  Fe42  1  0.50223697  0.83954452  0.50392209  1
  Fe  Fe43  1  0.33532097  0.66975843  0.67090824  1
  Fe  Fe44  1  0.50316098  0.83583529  0.83652349  1
  Fe  Fe45  1  0.83567814  0.17011515  0.50304989  1
  Fe  Fe46  1  0.66924400  0.00366327  0.66976050  1
  Fe  Fe47  1  0.83710176  0.16980774  0.83655544  1
  Fe  Fe48  1  0.83838529  0.50169132  0.50385001  1
  Fe  Fe49  1  0.66976101  0.33532055  0.67021289  1
  Fe  Fe50  1  0.83701331  0.50371026  0.83645205  1
  Fe  Fe51  1  0.83655726  0.83764700  0.50399708  1
  Fe  Fe52  1  0.67046315  0.67046301  0.67071090  1
  Ni  Ni53  1  0.83646413  0.83694492  0.83646595  1
" 