4219,Ni9Fe26Cr64_17,-213.474518314325, 184.343316675608,Ni9Fe26Cr64,"# generated using pymatgen
 data_Cr35Fe14Ni5
_symmetry_space_group_name_H-M   'P 1'
_cell_length_a   7.54241991
_cell_length_b   7.54241991
_cell_length_c   10.66659253
_cell_angle_alpha   90.00000000
_cell_angle_beta   90.00000000
_cell_angle_gamma   90.00000000
_symmetry_Int_Tables_number   1
_chemical_formula_structural   Cr35Fe14Ni5
_chemical_formula_sum   'Cr35 Fe14 Ni5'
_cell_volume   606.80216235
_cell_formula_units_Z   1
loop_
 _symmetry_equiv_pos_site_id
 _symmetry_equiv_pos_as_xyz
  1  'x, y, z'
loop_
 _atom_site_type_symbol
 _atom_site_label
 _atom_site_symmetry_multiplicity
 _atom_site_fract_x
 _atom_site_fract_y
 _atom_site_fract_z
 _atom_site_occupancy
  Cr  Cr0  1  0.99468825  0.99465984  0.99382264  1
  Cr  Cr1  1  0.16110456  0.16186697  0.16125132  1
  Cr  Cr2  1  0.99480059  -0.00432116  0.32879190  1
  Cr  Cr3  1  -0.00197523  0.33053316  0.99343048  1
  Fe  Fe4  1  0.16216944  0.49462539  0.16055516  1
  Ni  Ni5  1  -0.00437432  0.32751683  0.33003860  1
  Fe  Fe6  1  -0.00305051  0.66036983  0.99298657  1
  Cr  Cr7  1  0.16301408  0.82805485  0.16268577  1
  Cr  Cr8  1  -0.00458554  0.65954313  0.32593340  1
  Cr  Cr9  1  0.32896478  -0.00266522  0.99490555  1
  Cr  Cr10  1  0.49483075  0.16335489  0.16128508  1
  Fe  Fe11  1  0.32835635  -0.00345972  0.32897613  1
  Fe  Fe12  1  0.32705647  0.32972198  0.99286711  1
  Cr  Cr13  1  0.49452014  0.49500295  0.16125393  1
  Cr  Cr14  1  0.32729310  0.32701065  0.32763560  1
  Ni  Ni15  1  0.32519846  0.65925342  0.99321630  1
  Cr  Cr16  1  0.49248543  0.82704242  0.16119140  1
  Cr  Cr17  1  0.32718893  0.66113203  0.33013775  1
  Cr  Cr18  1  0.66124773  0.99461423  0.99198953  1
  Cr  Cr19  1  0.82915010  0.16372234  0.16412800  1
  Cr  Cr20  1  0.65995232  -0.00403007  0.32890622  1
  Cr  Cr21  1  0.66125126  0.32747789  0.99462340  1
  Cr  Cr22  1  0.82832955  0.49283241  0.16256391  1
  Fe  Fe23  1  0.66302895  0.32709073  0.32960543  1
  Cr  Cr24  1  0.66363715  0.66278477  0.99301205  1
  Cr  Cr25  1  0.82974006  0.82822382  0.15841936  1
  Cr  Cr26  1  0.66260200  0.66248383  0.32839758  1
  Cr  Cr27  1  0.15825701  0.16082561  0.49591972  1
  Fe  Fe28  1  0.99368758  -0.00319734  0.66294093  1
  Ni  Ni29  1  0.16196806  0.16180216  0.82771494  1
  Cr  Cr30  1  0.16145099  0.49439062  0.49776861  1
  Fe  Fe31  1  0.99426469  0.32681824  0.66333304  1
  Fe  Fe32  1  0.16040873  0.49417978  0.82900374  1
  Cr  Cr33  1  0.16233977  0.82989608  0.49521064  1
  Cr  Cr34  1  -0.00470773  0.65940640  0.66355540  1
  Cr  Cr35  1  0.16276409  0.82950854  0.82710207  1
  Fe  Fe36  1  0.49619770  0.16116574  0.49518672  1
  Cr  Cr37  1  0.33023136  -0.00275531  0.66117497  1
  Fe  Fe38  1  0.49453186  0.16118413  0.82767892  1
  Cr  Cr39  1  0.49577449  0.49434594  0.49490567  1
  Cr  Cr40  1  0.32577121  0.32812441  0.66525871  1
  Cr  Cr41  1  0.49478105  0.49626063  0.82894512  1
  Cr  Cr42  1  0.49346885  0.82815235  0.49632312  1
  Fe  Fe43  1  0.32929756  0.66216239  0.66351344  1
  Fe  Fe44  1  0.49467749  0.82933580  0.82771820  1
  Fe  Fe45  1  0.82759865  0.16135988  0.49564698  1
  Ni  Ni46  1  0.66183804  -0.00424765  0.66326384  1
  Cr  Cr47  1  0.82986034  0.16200463  0.82588492  1
  Cr  Cr48  1  0.82809751  0.49071285  0.49362232  1
  Cr  Cr49  1  0.66127225  0.32656525  0.65984749  1
  Ni  Ni50  1  0.82898745  0.49538799  0.82819173  1
  Cr  Cr51  1  0.82935992  0.83061026  0.49758152  1
  Cr  Cr52  1  0.66270461  0.66343128  0.66337735  1
  Fe  Fe53  1  0.82867738  0.82831295  0.82690552  1
" 