6905,Ni9Fe26Cr64_1,-213.494377822387, 181.822769233445,Ni9Fe26Cr64,"# generated using pymatgen
 data_Cr35Fe14Ni5
_symmetry_space_group_name_H-M   'P 1'
_cell_length_a   7.54365594
_cell_length_b   7.54365594
_cell_length_c   10.66834054
_cell_angle_alpha   90.00000000
_cell_angle_beta   90.00000000
_cell_angle_gamma   90.00000000
_symmetry_Int_Tables_number   1
_chemical_formula_structural   Cr35Fe14Ni5
_chemical_formula_sum   'Cr35 Fe14 Ni5'
_cell_volume   607.10053433
_cell_formula_units_Z   1
loop_
 _symmetry_equiv_pos_site_id
 _symmetry_equiv_pos_as_xyz
  1  'x, y, z'
loop_
 _atom_site_type_symbol
 _atom_site_label
 _atom_site_symmetry_multiplicity
 _atom_site_fract_x
 _atom_site_fract_y
 _atom_site_fract_z
 _atom_site_occupancy
  Cr  Cr0  1  0.99421446  0.99483901  0.99416760  1
  Cr  Cr1  1  0.16203379  0.16188059  0.15894468  1
  Cr  Cr2  1  0.99227371  0.99055831  0.32973359  1
  Cr  Cr3  1  0.99281863  0.32876142  0.99449820  1
  Ni  Ni4  1  0.15723793  0.49778028  0.16310311  1
  Cr  Cr5  1  0.99276274  0.32877485  0.32373993  1
  Cr  Cr6  1  0.99296073  0.66107126  -0.00137311  1
  Fe  Fe7  1  0.15983162  0.82638759  0.16182940  1
  Fe  Fe8  1  0.99392067  0.66137358  0.32564168  1
  Fe  Fe9  1  0.32921341  0.99441715  0.99366166  1
  Cr  Cr10  1  0.49703031  0.15829055  0.16289584  1
  Cr  Cr11  1  0.32711536  0.99230598  0.32942528  1
  Cr  Cr12  1  0.32818116  0.32908835  -0.00410231  1
  Fe  Fe13  1  0.49549089  0.49582006  0.16101415  1
  Cr  Cr14  1  0.32914954  0.33033917  0.32693260  1
  Cr  Cr15  1  0.32999440  0.66283460  -0.00403579  1
  Cr  Cr16  1  0.49724859  0.83004041  0.15728199  1
  Cr  Cr17  1  0.32638268  0.66224472  0.32726108  1
  Fe  Fe18  1  0.66157506  0.99327293  0.99423188  1
  Fe  Fe19  1  0.82809346  0.16129420  0.16126786  1
  Fe  Fe20  1  0.66307775  0.99321472  0.32735818  1
  Cr  Cr21  1  0.66377703  0.33034709  -0.00334561  1
  Ni  Ni22  1  0.83051901  0.49818346  0.16028755  1
  Cr  Cr23  1  0.66310515  0.32842051  0.32641844  1
  Fe  Fe24  1  0.66288583  0.66168118  -0.00499978  1
  Fe  Fe25  1  0.82907114  0.82732424  0.16145745  1
  Cr  Cr26  1  0.66361359  0.66199738  0.32696356  1
  Cr  Cr27  1  0.16009433  0.16154621  0.49810030  1
  Fe  Fe28  1  0.99344139  0.99361378  0.66133974  1
  Fe  Fe29  1  0.16251718  0.15971239  0.82897640  1
  Cr  Cr30  1  0.15930439  0.49650537  0.49244577  1
  Cr  Cr31  1  0.99279682  0.32620327  0.66635523  1
  Cr  Cr32  1  0.15874083  0.49435717  0.82822693  1
  Fe  Fe33  1  0.15905296  0.82832927  0.49515222  1
  Cr  Cr34  1  0.99304094  0.66475725  0.65978358  1
  Cr  Cr35  1  0.16238132  0.82919115  0.82894869  1
  Cr  Cr36  1  0.49682494  0.16157362  0.49292183  1
  Cr  Cr37  1  0.32634618  0.99321375  0.66364606  1
  Cr  Cr38  1  0.49528671  0.15893899  0.82900479  1
  Cr  Cr39  1  0.49673339  0.49516539  0.49678361  1
  Cr  Cr40  1  0.32994617  0.32717893  0.66148043  1
  Cr  Cr41  1  0.49813829  0.49815329  0.82607067  1
  Cr  Cr42  1  0.49755918  0.82782563  0.49621645  1
  Cr  Cr43  1  0.33068109  0.66441536  0.66066344  1
  Ni  Ni44  1  0.49753992  0.82859684  0.83047696  1
  Cr  Cr45  1  0.82739921  0.16039423  0.49436469  1
  Cr  Cr46  1  0.66216189  0.99332264  0.65966256  1
  Cr  Cr47  1  0.82859888  0.16193477  0.82758847  1
  Cr  Cr48  1  0.82833198  0.49637308  0.49891009  1
  Ni  Ni49  1  0.66365973  0.33023003  0.66238943  1
  Fe  Fe50  1  0.82522213  0.49696364  0.82774845  1
  Fe  Fe51  1  0.82851775  0.82701052  0.49544668  1
  Ni  Ni52  1  0.66296394  0.66184634  0.66469765  1
  Cr  Cr53  1  0.82494584  0.82590953  0.82814579  1
" 