2660,Ni9Fe26Cr64_19,-213.507074175657, 183.640530590222,Ni9Fe26Cr64,"# generated using pymatgen
 data_Cr35Fe14Ni5
_symmetry_space_group_name_H-M   'P 1'
_cell_length_a   7.55094502
_cell_length_b   7.55094502
_cell_length_c   10.67864885
_cell_angle_alpha   90.00000000
_cell_angle_beta   90.00000000
_cell_angle_gamma   90.00000000
_symmetry_Int_Tables_number   1
_chemical_formula_structural   Cr35Fe14Ni5
_chemical_formula_sum   'Cr35 Fe14 Ni5'
_cell_volume   608.86207254
_cell_formula_units_Z   1
loop_
 _symmetry_equiv_pos_site_id
 _symmetry_equiv_pos_as_xyz
  1  'x, y, z'
loop_
 _atom_site_type_symbol
 _atom_site_label
 _atom_site_symmetry_multiplicity
 _atom_site_fract_x
 _atom_site_fract_y
 _atom_site_fract_z
 _atom_site_occupancy
  Cr  Cr0  1  -0.00459515  0.99252683  -0.00515149  1
  Cr  Cr1  1  0.15856323  0.16342334  0.16112732  1
  Cr  Cr2  1  -0.00267939  0.99328772  0.33105428  1
  Fe  Fe3  1  0.99375315  0.33188566  0.99408731  1
  Fe  Fe4  1  0.15801477  0.49470508  0.15955914  1
  Cr  Cr5  1  0.99233804  0.33039873  0.32663046  1
  Ni  Ni6  1  0.99001624  0.65653452  -0.00460050  1
  Cr  Cr7  1  0.15888760  0.82573351  0.16074509  1
  Cr  Cr8  1  0.99295508  0.66017130  0.32706119  1
  Cr  Cr9  1  0.32933828  -0.00465849  0.99367476  1
  Cr  Cr10  1  0.49745372  0.16178076  0.16178723  1
  Cr  Cr11  1  0.32711353  0.99362807  0.32924314  1
  Cr  Cr12  1  0.32716314  0.32804413  0.99339174  1
  Cr  Cr13  1  0.49429402  0.49454157  0.16338465  1
  Cr  Cr14  1  0.32692038  0.32736933  0.32606953  1
  Cr  Cr15  1  0.32509621  0.66009249  -0.00423295  1
  Cr  Cr16  1  0.49829001  0.82669601  0.16083768  1
  Cr  Cr17  1  0.32700289  0.66364730  0.32838448  1
  Fe  Fe18  1  0.66240889  0.99340376  -0.00544653  1
  Cr  Cr19  1  0.82749493  0.15968218  0.16272534  1
  Fe  Fe20  1  0.66165305  0.99383357  0.32824869  1
  Cr  Cr21  1  0.66191647  0.32968849  0.99158568  1
  Fe  Fe22  1  0.82760820  0.49435221  0.15862086  1
  Ni  Ni23  1  0.66339754  0.32956019  0.32827616  1
  Fe  Fe24  1  0.66347545  0.65933652  -0.00527949  1
  Fe  Fe25  1  0.82758043  0.82606560  0.15951998  1
  Cr  Cr26  1  0.66368088  0.65863329  0.32790218  1
  Ni  Ni27  1  0.16211211  0.16262481  0.49455695  1
  Cr  Cr28  1  -0.00368480  0.99350627  0.65776866  1
  Cr  Cr29  1  0.16011103  0.16432885  0.82730934  1
  Cr  Cr30  1  0.16212139  0.49503467  0.49668325  1
  Cr  Cr31  1  0.99223205  0.32983310  0.66216140  1
  Fe  Fe32  1  0.15658528  0.49661111  0.82780331  1
  Fe  Fe33  1  0.16195905  0.82621871  0.49664567  1
  Ni  Ni34  1  -0.00440739  0.65820408  0.66139111  1
  Cr  Cr35  1  0.15939852  0.82454525  0.82534610  1
  Cr  Cr36  1  0.49608557  0.16436888  0.49257951  1
  Cr  Cr37  1  0.32781119  -0.00462180  0.66006515  1
  Fe  Fe38  1  0.49474268  0.16194645  0.82747628  1
  Cr  Cr39  1  0.49407312  0.49602439  0.49397951  1
  Fe  Fe40  1  0.32584865  0.32779020  0.66077833  1
  Cr  Cr41  1  0.49079199  0.49527055  0.82481659  1
  Fe  Fe42  1  0.49411143  0.82854529  0.49518222  1
  Fe  Fe43  1  0.32642892  0.66141542  0.66041248  1
  Cr  Cr44  1  0.49542436  0.82533772  0.82926333  1
  Cr  Cr45  1  0.82843100  0.16163668  0.49218464  1
  Cr  Cr46  1  0.65950822  -0.00534858  0.66332832  1
  Cr  Cr47  1  0.82884833  0.16076363  0.82861334  1
  Fe  Fe48  1  0.82928664  0.49354367  0.49513659  1
  Cr  Cr49  1  0.66151731  0.32941211  0.66169479  1
  Ni  Ni50  1  0.82942442  0.49660546  0.82868560  1
  Cr  Cr51  1  0.82809698  0.82684651  0.49537122  1
  Cr  Cr52  1  0.66455972  0.65913938  0.66108162  1
  Cr  Cr53  1  0.82944776  0.82606058  0.83048587  1
" 