2468,Ni9Fe62Cr27_4,-223.413543659988, 167.287597478446,Ni9Fe62Cr27,"# generated using pymatgen
 data_Cr16Fe33Ni5
_symmetry_space_group_name_H-M   'P 1'
_cell_length_a   7.48377950
_cell_length_b   7.48377950
_cell_length_c   10.58366246
_cell_angle_alpha   90.00000000
_cell_angle_beta   90.00000000
_cell_angle_gamma   90.00000000
_symmetry_Int_Tables_number   1
_chemical_formula_structural   Cr16Fe33Ni5
_chemical_formula_sum   'Cr16 Fe33 Ni5'
_cell_volume   592.75871326
_cell_formula_units_Z   1
loop_
 _symmetry_equiv_pos_site_id
 _symmetry_equiv_pos_as_xyz
  1  'x, y, z'
loop_
 _atom_site_type_symbol
 _atom_site_label
 _atom_site_symmetry_multiplicity
 _atom_site_fract_x
 _atom_site_fract_y
 _atom_site_fract_z
 _atom_site_occupancy
  Fe  Fe0  1  0.00047000  0.99634776  0.00251986  1
  Fe  Fe1  1  0.16339735  0.16433374  0.16729601  1
  Fe  Fe2  1  0.00062834  0.99790022  0.32944354  1
  Cr  Cr3  1  0.00137553  0.33271529  0.00082689  1
  Fe  Fe4  1  0.16633035  0.50015582  0.16825650  1
  Ni  Ni5  1  0.99858812  0.33272396  0.33088855  1
  Fe  Fe6  1  0.00096046  0.66590005  0.00113351  1
  Fe  Fe7  1  0.16623114  0.83178267  0.16615335  1
  Fe  Fe8  1  0.00018806  0.66483885  0.32925434  1
  Fe  Fe9  1  0.33164154  0.99641434  0.00032521  1
  Cr  Cr10  1  0.49559227  0.16863395  0.16612536  1
  Fe  Fe11  1  0.33007904  0.99696115  0.33184389  1
  Fe  Fe12  1  0.33329356  0.33623309  -0.00077028  1
  Fe  Fe13  1  0.49778489  0.50175418  0.16777141  1
  Fe  Fe14  1  0.33028113  0.33368869  0.33086171  1
  Fe  Fe15  1  0.32911279  0.66495840  0.00082323  1
  Fe  Fe16  1  0.49774791  0.83152194  0.16741196  1
  Ni  Ni17  1  0.33247099  0.66765399  0.33094562  1
  Fe  Fe18  1  0.66551104  -0.00052948  0.00243190  1
  Fe  Fe19  1  0.83309412  0.16435673  0.16664455  1
  Cr  Cr20  1  0.66416468  0.99675312  0.33284675  1
  Fe  Fe21  1  0.66510403  0.33407190  0.00074516  1
  Fe  Fe22  1  0.83241205  0.49910736  0.16707927  1
  Fe  Fe23  1  0.66718872  0.33384579  0.33094283  1
  Cr  Cr24  1  0.66208078  0.66771016  0.00087121  1
  Ni  Ni25  1  0.83442693  0.83076873  0.16506563  1
  Fe  Fe26  1  0.66598087  0.66420285  0.33008489  1
  Cr  Cr27  1  0.16754134  0.16475243  0.49705037  1
  Fe  Fe28  1  0.00254551  0.99713294  0.66546541  1
  Cr  Cr29  1  0.16702521  0.16454860  0.83227843  1
  Cr  Cr30  1  0.16491180  0.50018187  0.49849726  1
  Fe  Fe31  1  -0.00034473  0.33315995  0.66504847  1
  Fe  Fe32  1  0.16776995  0.50082362  0.83100200  1
  Fe  Fe33  1  0.16903250  0.83148904  0.49735207  1
  Fe  Fe34  1  0.00292746  0.66602158  0.66566330  1
  Fe  Fe35  1  0.16778089  0.83053984  0.83288578  1
  Fe  Fe36  1  0.49702700  0.16485469  0.49897663  1
  Fe  Fe37  1  0.33195244  0.99663710  0.66398258  1
  Cr  Cr38  1  0.49792653  0.16737127  0.83267539  1
  Cr  Cr39  1  0.49802249  0.49772183  0.49569187  1
  Ni  Ni40  1  0.32965383  0.33283250  0.66631000  1
  Fe  Fe41  1  0.49557087  0.50000365  0.83150289  1
  Ni  Ni42  1  0.49675546  0.83129788  0.49591368  1
  Fe  Fe43  1  0.33180995  0.66696982  0.66476563  1
  Fe  Fe44  1  0.49542818  0.83189214  0.83273832  1
  Cr  Cr45  1  0.83306541  0.16635043  0.50040297  1
  Cr  Cr46  1  0.66342934  0.99735488  0.66507782  1
  Cr  Cr47  1  0.83158762  0.16405051  0.83367231  1
  Fe  Fe48  1  0.83283046  0.49800779  0.49723824  1
  Fe  Fe49  1  0.66227274  0.33287384  0.66457931  1
  Cr  Cr50  1  0.83207983  0.49997869  0.82872571  1
  Cr  Cr51  1  0.83632492  0.82875656  0.49705993  1
  Cr  Cr52  1  0.66354905  0.66669397  0.66268447  1
  Cr  Cr53  1  0.83502193  0.83253197  0.83457095  1
" 