3364,Ni9Fe84Cr6_2,-226.354379331435, 153.857122722572,Ni9Fe84Cr6,"# generated using pymatgen
 data_Cr4(Fe9Ni)5
_symmetry_space_group_name_H-M   'P 1'
_cell_length_a   7.42500028
_cell_length_b   7.42500028
_cell_length_c   10.50053609
_cell_angle_alpha   90.00000000
_cell_angle_beta   90.00000000
_cell_angle_gamma   90.00000000
_symmetry_Int_Tables_number   1
_chemical_formula_structural   Cr4(Fe9Ni)5
_chemical_formula_sum   'Cr4 Fe45 Ni5'
_cell_volume   578.90116109
_cell_formula_units_Z   1
loop_
 _symmetry_equiv_pos_site_id
 _symmetry_equiv_pos_as_xyz
  1  'x, y, z'
loop_
 _atom_site_type_symbol
 _atom_site_label
 _atom_site_symmetry_multiplicity
 _atom_site_fract_x
 _atom_site_fract_y
 _atom_site_fract_z
 _atom_site_occupancy
  Fe  Fe0  1  1.00199137  1.00249838  0.00436509  1
  Ni  Ni1  1  0.16946428  0.16917527  0.17050841  1
  Fe  Fe2  1  0.00311785  0.00411856  0.33564159  1
  Fe  Fe3  1  1.00106615  0.33569024  0.00502156  1
  Fe  Fe4  1  0.17053971  0.50202567  0.16825694  1
  Fe  Fe5  1  1.00234286  0.33418326  0.33632030  1
  Fe  Fe6  1  1.00154951  0.67047880  0.00469322  1
  Ni  Ni7  1  0.16992263  0.83663914  0.16836685  1
  Cr  Cr8  1  1.00204175  0.66901724  0.33598317  1
  Fe  Fe9  1  0.33699147  1.00273358  0.00375598  1
  Fe  Fe10  1  0.50165650  0.16853783  0.17070759  1
  Fe  Fe11  1  0.33551207  1.00262055  0.33623152  1
  Fe  Fe12  1  0.33794488  0.33538890  0.00502058  1
  Fe  Fe13  1  0.50172840  0.50300171  0.16963797  1
  Fe  Fe14  1  0.33602139  0.33605479  0.33628352  1
  Fe  Fe15  1  0.33758595  0.67058229  0.00418384  1
  Fe  Fe16  1  0.50217615  0.83701071  0.16971514  1
  Fe  Fe17  1  0.33693626  0.67002395  0.33555505  1
  Fe  Fe18  1  0.66948070  0.00317669  1.00275299  1
  Fe  Fe19  1  0.83694995  0.16853148  0.17049915  1
  Fe  Fe20  1  0.67005864  0.00325104  0.33678067  1
  Fe  Fe21  1  0.66950246  0.33593158  0.00334764  1
  Fe  Fe22  1  0.83608656  0.50192873  0.16856112  1
  Fe  Fe23  1  0.67023103  0.33600142  0.33641406  1
  Fe  Fe24  1  0.66957091  0.66937810  1.00219947  1
  Fe  Fe25  1  0.83597890  0.83802533  0.16871337  1
  Fe  Fe26  1  0.66773980  0.66925507  0.33660790  1
  Fe  Fe27  1  0.16892575  0.17049047  0.50152673  1
  Fe  Fe28  1  0.99958128  1.00138052  0.66833245  1
  Cr  Cr29  1  0.16836929  0.17022260  0.83599548  1
  Fe  Fe30  1  0.17024976  0.50046762  0.50393848  1
  Fe  Fe31  1  1.00041219  0.33640122  0.66767059  1
  Cr  Cr32  1  0.16970732  0.50349021  0.83665104  1
  Fe  Fe33  1  0.16950164  0.83779745  0.50162104  1
  Fe  Fe34  1  1.00201060  0.67095494  0.66777269  1
  Fe  Fe35  1  0.16849977  0.83592999  0.83793971  1
  Ni  Ni36  1  0.50408609  0.16973480  0.50200884  1
  Cr  Cr37  1  0.33663653  0.00405712  0.66921028  1
  Fe  Fe38  1  0.50504114  0.17092814  0.83644947  1
  Fe  Fe39  1  0.50431198  0.50209603  0.50274782  1
  Fe  Fe40  1  0.33924795  0.33831353  0.66757754  1
  Fe  Fe41  1  0.50487835  0.50283086  0.83599886  1
  Fe  Fe42  1  0.50536076  0.83643508  0.50226966  1
  Fe  Fe43  1  0.33847508  0.66934995  0.66808734  1
  Fe  Fe44  1  0.50378438  0.83456605  0.83648671  1
  Ni  Ni45  1  0.83556529  0.16907777  0.50267418  1
  Fe  Fe46  1  0.67070219  1.00246455  0.66909404  1
  Fe  Fe47  1  0.83468808  0.16988824  0.83549135  1
  Fe  Fe48  1  0.83412074  0.50086791  0.50360858  1
  Fe  Fe49  1  0.66900431  0.33535039  0.66890683  1
  Fe  Fe50  1  0.83485080  0.50264520  0.83600052  1
  Fe  Fe51  1  0.83387876  0.83776731  0.50353998  1
  Ni  Ni52  1  0.67038922  0.66848116  0.66930281  1
  Fe  Fe53  1  0.83643200  0.83564994  0.83587165  1
" 