1661,Ni9Fe57Cr33_5,-222.144598279786, 166.524320841941,Ni9Fe57Cr33,"# generated using pymatgen
 data_Cr19(Fe6Ni)5
_symmetry_space_group_name_H-M   'P 1'
_cell_length_a   7.49866603
_cell_length_b   7.49866603
_cell_length_c   10.60471520
_cell_angle_alpha   90.00000000
_cell_angle_beta   90.00000000
_cell_angle_gamma   90.00000000
_symmetry_Int_Tables_number   1
_chemical_formula_structural   Cr19(Fe6Ni)5
_chemical_formula_sum   'Cr19 Fe30 Ni5'
_cell_volume   596.30305325
_cell_formula_units_Z   1
loop_
 _symmetry_equiv_pos_site_id
 _symmetry_equiv_pos_as_xyz
  1  'x, y, z'
loop_
 _atom_site_type_symbol
 _atom_site_label
 _atom_site_symmetry_multiplicity
 _atom_site_fract_x
 _atom_site_fract_y
 _atom_site_fract_z
 _atom_site_occupancy
  Cr  Cr0  1  -0.00128136  0.99703098  -0.00124104  1
  Fe  Fe1  1  0.16804568  0.16482103  0.16513143  1
  Cr  Cr2  1  0.99705227  -0.00102426  0.33226354  1
  Cr  Cr3  1  0.00169579  0.32885479  -0.00011790  1
  Cr  Cr4  1  0.16388780  0.50292123  0.16511123  1
  Fe  Fe5  1  0.00026280  0.33326224  0.33202484  1
  Cr  Cr6  1  -0.00087333  0.66703151  0.99579854  1
  Fe  Fe7  1  0.16596111  0.83245337  0.16692189  1
  Ni  Ni8  1  -0.00202905  0.66492353  0.33270842  1
  Fe  Fe9  1  0.33078748  0.99769102  0.99661765  1
  Fe  Fe10  1  0.49736700  0.16610352  0.16619610  1
  Fe  Fe11  1  0.33054931  -0.00143181  0.32965386  1
  Cr  Cr12  1  0.33399674  0.33389627  0.99496721  1
  Fe  Fe13  1  0.49650979  0.49794172  0.16625080  1
  Fe  Fe14  1  0.32975251  0.33214508  0.33109125  1
  Fe  Fe15  1  0.33064399  0.66786165  0.99554827  1
  Fe  Fe16  1  0.49503470  0.83004411  0.16647818  1
  Fe  Fe17  1  0.33116981  0.66249000  0.33186759  1
  Cr  Cr18  1  0.66348434  0.99705307  -0.00152989  1
  Fe  Fe19  1  0.82955000  0.16350681  0.16674831  1
  Fe  Fe20  1  0.66364045  0.99686303  0.32941285  1
  Fe  Fe21  1  0.66346729  0.33015601  -0.00182847  1
  Cr  Cr22  1  0.83078304  0.49458519  0.16372864  1
  Fe  Fe23  1  0.66295856  0.33304519  0.33179646  1
  Cr  Cr24  1  0.66053372  0.66353573  0.99726972  1
  Fe  Fe25  1  0.83148308  0.82870026  0.16656658  1
  Fe  Fe26  1  0.66560386  0.66411617  0.33002355  1
  Fe  Fe27  1  0.16433038  0.16769053  0.49855970  1
  Cr  Cr28  1  0.99712483  -0.00206057  0.66354071  1
  Ni  Ni29  1  0.16676132  0.16289152  0.83004997  1
  Fe  Fe30  1  0.16740862  0.49668354  0.49774439  1
  Ni  Ni31  1  0.00063088  0.33265173  0.66327508  1
  Fe  Fe32  1  0.16511623  0.49597770  0.82848619  1
  Cr  Cr33  1  0.16720700  0.82898053  0.49785895  1
  Fe  Fe34  1  0.00002602  0.66285645  0.66446405  1
  Fe  Fe35  1  0.16602609  0.82953775  0.82925329  1
  Cr  Cr36  1  0.49540083  0.16426332  0.49863279  1
  Cr  Cr37  1  0.33075323  -0.00134894  0.66621247  1
  Fe  Fe38  1  0.49803415  0.16607180  0.83005495  1
  Fe  Fe39  1  0.49703391  0.49721062  0.49908178  1
  Fe  Fe40  1  0.33008852  0.33239442  0.66605271  1
  Fe  Fe41  1  0.49668931  0.49722508  0.82875823  1
  Cr  Cr42  1  0.49728169  0.82955946  0.49607477  1
  Ni  Ni43  1  0.33232116  0.66002190  0.66570494  1
  Fe  Fe44  1  0.49534100  0.82989257  0.83020489  1
  Cr  Cr45  1  0.82893034  0.16873842  0.49838902  1
  Cr  Cr46  1  0.66560839  0.99549246  0.66451891  1
  Cr  Cr47  1  0.83155074  0.16866229  0.83123674  1
  Cr  Cr48  1  0.83262098  0.49904134  0.49940728  1
  Ni  Ni49  1  0.66228968  0.33382246  0.66601768  1
  Cr  Cr50  1  0.83192262  0.49712099  0.83113076  1
  Fe  Fe51  1  0.83064223  0.83003973  0.49634658  1
  Fe  Fe52  1  0.66320288  0.66268224  0.66557839  1
  Fe  Fe53  1  0.83177305  0.83147665  0.83005859  1
" 