4990,Ni9Fe26Cr64_11,-213.665169094064, 187.711536743332,Ni9Fe26Cr64,"# generated using pymatgen
 data_Cr35Fe14Ni5
_symmetry_space_group_name_H-M   'P 1'
_cell_length_a   7.54405056
_cell_length_b   7.54405056
_cell_length_c   10.66889861
_cell_angle_alpha   90.00000000
_cell_angle_beta   90.00000000
_cell_angle_gamma   90.00000000
_symmetry_Int_Tables_number   1
_chemical_formula_structural   Cr35Fe14Ni5
_chemical_formula_sum   'Cr35 Fe14 Ni5'
_cell_volume   607.19581357
_cell_formula_units_Z   1
loop_
 _symmetry_equiv_pos_site_id
 _symmetry_equiv_pos_as_xyz
  1  'x, y, z'
loop_
 _atom_site_type_symbol
 _atom_site_label
 _atom_site_symmetry_multiplicity
 _atom_site_fract_x
 _atom_site_fract_y
 _atom_site_fract_z
 _atom_site_occupancy
  Cr  Cr0  1  0.99387986  0.99435731  0.99351603  1
  Cr  Cr1  1  0.16286665  0.16067095  0.16230914  1
  Cr  Cr2  1  -0.00457012  -0.00434828  0.32936516  1
  Cr  Cr3  1  0.99456117  0.32781715  -0.00345538  1
  Fe  Fe4  1  0.15981280  0.49493697  0.16118190  1
  Cr  Cr5  1  -0.00453072  0.32711845  0.32693186  1
  Fe  Fe6  1  0.99381610  0.66038560  -0.00475195  1
  Cr  Cr7  1  0.16182214  0.82620690  0.16214043  1
  Fe  Fe8  1  0.99435091  0.66086741  0.32786726  1
  Fe  Fe9  1  0.32935940  -0.00372109  0.99482282  1
  Cr  Cr10  1  0.49698857  0.16090418  0.15790895  1
  Fe  Fe11  1  0.32946717  -0.00388702  0.33022686  1
  Fe  Fe12  1  0.32940347  0.32786156  -0.00475782  1
  Cr  Cr13  1  0.49585399  0.49280777  0.15998468  1
  Cr  Cr14  1  0.32840501  0.32752566  0.32940152  1
  Cr  Cr15  1  0.32761029  0.66042460  0.99369223  1
  Cr  Cr16  1  0.49300426  0.83112721  0.16171151  1
  Cr  Cr17  1  0.32985316  0.66109870  0.33010631  1
  Fe  Fe18  1  0.66247658  -0.00299353  -0.00493444  1
  Ni  Ni19  1  0.82706675  0.16380688  0.15965725  1
  Cr  Cr20  1  0.66171580  0.99429279  0.32978699  1
  Ni  Ni21  1  0.66187068  0.32709046  -0.00280412  1
  Fe  Fe22  1  0.82910899  0.49302172  0.16062364  1
  Cr  Cr23  1  0.66089742  0.32910799  0.32712018  1
  Cr  Cr24  1  0.66263806  0.66116534  0.99438613  1
  Cr  Cr25  1  0.82986846  0.82728009  0.16170859  1
  Cr  Cr26  1  0.66122288  0.66128236  0.33042728  1
  Fe  Fe27  1  0.16384480  0.16234960  0.49486394  1
  Cr  Cr28  1  0.99296284  -0.00386091  0.66177998  1
  Cr  Cr29  1  0.16196324  0.16191515  0.82688873  1
  Cr  Cr30  1  0.16119306  0.49584499  0.49652160  1
  Fe  Fe31  1  0.99466818  0.32727079  0.66107790  1
  Cr  Cr32  1  0.16091338  0.49612185  0.82718075  1
  Cr  Cr33  1  0.16239792  0.82819390  0.49267967  1
  Cr  Cr34  1  0.99397950  0.66310545  0.66391450  1
  Cr  Cr35  1  0.16162247  0.82672291  0.82991057  1
  Ni  Ni36  1  0.49482669  0.15980870  0.49480916  1
  Cr  Cr37  1  0.32879023  -0.00448507  0.65887760  1
  Cr  Cr38  1  0.49730059  0.16066079  0.83276865  1
  Ni  Ni39  1  0.49403715  0.49496389  0.49622189  1
  Cr  Cr40  1  0.32754493  0.32938063  0.65993561  1
  Cr  Cr41  1  0.49471427  0.49382267  0.82773577  1
  Fe  Fe42  1  0.49598522  0.82916346  0.49586995  1
  Fe  Fe43  1  0.33015425  0.66196845  0.66012468  1
  Cr  Cr44  1  0.49520435  0.83039170  0.82817836  1
  Cr  Cr45  1  0.82698140  0.16138923  0.49708547  1
  Ni  Ni46  1  0.66183142  0.99304461  0.66093427  1
  Cr  Cr47  1  0.82539056  0.16135458  0.82727693  1
  Cr  Cr48  1  0.82835453  0.49495068  0.49412454  1
  Cr  Cr49  1  0.65975534  0.32819325  0.65975511  1
  Cr  Cr50  1  0.82897552  0.49404149  0.82824675  1
  Fe  Fe51  1  0.82594631  0.82860834  0.49542479  1
  Cr  Cr52  1  0.65921194  0.66410476  0.65980611  1
  Fe  Fe53  1  0.82703823  0.82917403  0.82824179  1
" 