4473,Ni9Fe57Cr33_11,-222.213871982672, 171.79224080304,Ni9Fe57Cr33,"# generated using pymatgen
 data_Cr19(Fe6Ni)5
_symmetry_space_group_name_H-M   'P 1'
_cell_length_a   7.49714203
_cell_length_b   7.49714203
_cell_length_c   10.60255994
_cell_angle_alpha   90.00000000
_cell_angle_beta   90.00000000
_cell_angle_gamma   90.00000000
_symmetry_Int_Tables_number   1
_chemical_formula_structural   Cr19(Fe6Ni)5
_chemical_formula_sum   'Cr19 Fe30 Ni5'
_cell_volume   595.93955603
_cell_formula_units_Z   1
loop_
 _symmetry_equiv_pos_site_id
 _symmetry_equiv_pos_as_xyz
  1  'x, y, z'
loop_
 _atom_site_type_symbol
 _atom_site_label
 _atom_site_symmetry_multiplicity
 _atom_site_fract_x
 _atom_site_fract_y
 _atom_site_fract_z
 _atom_site_occupancy
  Fe  Fe0  1  -0.00136709  0.99770692  0.00035408  1
  Ni  Ni1  1  0.16473495  0.16507611  0.16331883  1
  Cr  Cr2  1  -0.00060782  0.99627568  0.33110674  1
  Cr  Cr3  1  0.99699448  0.32979583  -0.00177276  1
  Cr  Cr4  1  0.16470312  0.49892332  0.16754208  1
  Fe  Fe5  1  -0.00134780  0.32986483  0.33045562  1
  Fe  Fe6  1  0.99663480  0.66569614  0.00013198  1
  Fe  Fe7  1  0.16582588  0.83268391  0.16326821  1
  Fe  Fe8  1  -0.00112057  0.66624062  0.33125833  1
  Fe  Fe9  1  0.33204087  0.00045665  0.00090988  1
  Fe  Fe10  1  0.49588588  0.16313054  0.16239195  1
  Cr  Cr11  1  0.33023044  0.99618313  0.33097737  1
  Fe  Fe12  1  0.33270000  0.32886794  -0.00025114  1
  Fe  Fe13  1  0.49802025  0.49840022  0.16197078  1
  Cr  Cr14  1  0.33348607  0.32987718  0.33171700  1
  Fe  Fe15  1  0.33292579  0.66473581  0.00048779  1
  Ni  Ni16  1  0.49852856  0.83128132  0.16359565  1
  Fe  Fe17  1  0.33244737  0.66765031  0.33219657  1
  Fe  Fe18  1  0.66315750  -0.00080413  0.00011269  1
  Cr  Cr19  1  0.82950130  0.16428380  0.16673638  1
  Fe  Fe20  1  0.66245842  0.99635305  0.33208591  1
  Ni  Ni21  1  0.66157522  0.33197546  -0.00033678  1
  Fe  Fe22  1  0.83003366  0.49984099  0.16337705  1
  Cr  Cr23  1  0.66376690  0.33163853  0.33036803  1
  Fe  Fe24  1  0.66454329  0.66419792  0.00134973  1
  Fe  Fe25  1  0.83134338  0.83061024  0.16312402  1
  Cr  Cr26  1  0.66335198  0.66504206  0.33182722  1
  Fe  Fe27  1  0.16453930  0.16239627  0.49908127  1
  Fe  Fe28  1  -0.00018539  0.99785835  0.66191834  1
  Fe  Fe29  1  0.16712933  0.16330043  0.83155270  1
  Cr  Cr30  1  0.16446943  0.49740103  0.49641342  1
  Fe  Fe31  1  0.00023918  0.32841736  0.66424599  1
  Cr  Cr32  1  0.16534966  0.49673989  0.82973213  1
  Ni  Ni33  1  0.16623076  0.83147267  0.49721601  1
  Fe  Fe34  1  0.99754477  0.66717968  0.66297735  1
  Cr  Cr35  1  0.16566391  0.83207051  0.83368511  1
  Fe  Fe36  1  0.49733767  0.16216226  0.49906734  1
  Fe  Fe37  1  0.33123823  0.00017382  0.66217520  1
  Fe  Fe38  1  0.49626812  0.16466867  0.83271317  1
  Fe  Fe39  1  0.49731095  0.50041973  0.49839086  1
  Fe  Fe40  1  0.33047192  0.32776039  0.66344862  1
  Cr  Cr41  1  0.49689626  0.49849426  0.83254441  1
  Ni  Ni42  1  0.49874837  0.83473696  0.49842184  1
  Cr  Cr43  1  0.33251860  0.66684752  0.66121756  1
  Cr  Cr44  1  0.49881178  0.83425105  0.83148803  1
  Fe  Fe45  1  0.83189309  0.16083680  0.49846041  1
  Fe  Fe46  1  0.66319381  0.99717694  0.66177384  1
  Cr  Cr47  1  0.83006975  0.16287628  0.83078179  1
  Cr  Cr48  1  0.83422871  0.49559654  0.49798337  1
  Cr  Cr49  1  0.66292964  0.33219385  0.66428128  1
  Cr  Cr50  1  0.83173138  0.49884880  0.83178023  1
  Fe  Fe51  1  0.83196214  0.83219944  0.49949401  1
  Fe  Fe52  1  0.66501075  0.66706175  0.66181967  1
  Cr  Cr53  1  0.82956980  0.83249314  0.83065163  1
" 