4257,Ni9Fe84Cr6_18,-226.408641290297, 151.524288091728,Ni9Fe84Cr6,"# generated using pymatgen
 data_Cr4(Fe9Ni)5
_symmetry_space_group_name_H-M   'P 1'
_cell_length_a   7.42461263
_cell_length_b   7.42461263
_cell_length_c   10.49998788
_cell_angle_alpha   90.00000000
_cell_angle_beta   90.00000000
_cell_angle_gamma   90.00000000
_symmetry_Int_Tables_number   1
_chemical_formula_structural   Cr4(Fe9Ni)5
_chemical_formula_sum   'Cr4 Fe45 Ni5'
_cell_volume   578.81049534
_cell_formula_units_Z   1
loop_
 _symmetry_equiv_pos_site_id
 _symmetry_equiv_pos_as_xyz
  1  'x, y, z'
loop_
 _atom_site_type_symbol
 _atom_site_label
 _atom_site_symmetry_multiplicity
 _atom_site_fract_x
 _atom_site_fract_y
 _atom_site_fract_z
 _atom_site_occupancy
  Fe  Fe0  1  0.00312671  0.00310984  1.00247645  1
  Fe  Fe1  1  0.16921657  0.16928546  0.16882432  1
  Fe  Fe2  1  0.00334121  0.00341034  0.33660309  1
  Fe  Fe3  1  0.00315307  0.33582552  1.00265200  1
  Fe  Fe4  1  0.16930553  0.50375524  0.16875594  1
  Fe  Fe5  1  1.00160084  0.33576333  0.33648528  1
  Fe  Fe6  1  1.00281551  0.66964136  1.00224477  1
  Fe  Fe7  1  0.17010077  0.83553622  0.16952238  1
  Fe  Fe8  1  0.00303457  0.66939760  0.33677112  1
  Fe  Fe9  1  0.33532474  0.00418482  0.00299409  1
  Fe  Fe10  1  0.50375379  0.16928688  0.16820258  1
  Fe  Fe11  1  0.33583144  1.00158013  0.33657923  1
  Fe  Fe12  1  0.33649594  0.33594820  1.00275538  1
  Ni  Ni13  1  0.50418564  0.50448475  0.16828972  1
  Cr  Cr14  1  0.33677546  0.33685100  0.33609452  1
  Fe  Fe15  1  0.33575480  0.66845115  0.00391058  1
  Fe  Fe16  1  0.50282709  0.83559212  0.16939871  1
  Fe  Fe17  1  0.33660095  0.67078211  0.33599593  1
  Fe  Fe18  1  0.67012253  0.00385228  0.00333190  1
  Fe  Fe19  1  0.83560411  0.17007886  0.16961610  1
  Fe  Fe20  1  0.66939795  0.00301309  0.33621594  1
  Fe  Fe21  1  0.66892470  0.33625125  0.00292191  1
  Fe  Fe22  1  0.83565830  0.50282668  0.16955122  1
  Fe  Fe23  1  0.67078117  0.33653355  0.33584349  1
  Fe  Fe24  1  0.67001103  0.66847788  0.00400092  1
  Fe  Fe25  1  0.83564613  0.83566861  0.16949827  1
  Fe  Fe26  1  0.66894224  0.66903249  0.33588206  1
  Ni  Ni27  1  0.16941662  0.16947797  0.50289076  1
  Cr  Cr28  1  1.00267209  1.00212098  0.67065738  1
  Ni  Ni29  1  0.17047309  0.17071881  0.83683383  1
  Fe  Fe30  1  0.16760197  0.50263261  0.50313639  1
  Fe  Fe31  1  0.00364497  0.33798817  0.66943847  1
  Fe  Fe32  1  0.16911990  0.50156235  0.83667539  1
  Fe  Fe33  1  0.16929045  0.83640331  0.50152049  1
  Ni  Ni34  1  1.00152649  0.66885594  0.67008896  1
  Fe  Fe35  1  0.16824848  0.83692510  0.83754036  1
  Fe  Fe36  1  0.50312297  0.16864340  0.50423315  1
  Fe  Fe37  1  0.33615091  0.00548390  0.66900003  1
  Ni  Ni38  1  0.50172162  0.17045905  0.83547623  1
  Fe  Fe39  1  0.50388961  0.50234850  0.50222254  1
  Fe  Fe40  1  0.33520484  0.33413414  0.66960583  1
  Fe  Fe41  1  0.50310516  0.49941664  0.83755347  1
  Fe  Fe42  1  0.50308245  0.83758418  0.50223151  1
  Cr  Cr43  1  0.33458895  0.66803696  0.66855294  1
  Cr  Cr44  1  0.50412947  0.83718660  0.83665997  1
  Fe  Fe45  1  0.83590074  0.17032266  0.50187121  1
  Fe  Fe46  1  0.66880457  0.00304571  0.66901795  1
  Fe  Fe47  1  0.83507017  0.17009016  0.83709531  1
  Fe  Fe48  1  0.83708174  0.50259845  0.50321906  1
  Fe  Fe49  1  0.66972257  0.33657021  0.66979708  1
  Fe  Fe50  1  0.83633883  0.50231285  0.83580580  1
  Fe  Fe51  1  0.83619194  0.83564798  0.50240899  1
  Fe  Fe52  1  0.67264870  0.66896306  0.66868484  1
  Fe  Fe53  1  0.83723498  0.83616659  0.83668122  1
" 