7854,Ni9Fe84Cr6_15,-226.521387718213, 153.12842507623,Ni9Fe84Cr6,"# generated using pymatgen
 data_Cr4(Fe9Ni)5
_symmetry_space_group_name_H-M   'P 1'
_cell_length_a   7.43111737
_cell_length_b   7.43111737
_cell_length_c   10.50918696
_cell_angle_alpha   90.00000000
_cell_angle_beta   90.00000000
_cell_angle_gamma   90.00000000
_symmetry_Int_Tables_number   1
_chemical_formula_structural   Cr4(Fe9Ni)5
_chemical_formula_sum   'Cr4 Fe45 Ni5'
_cell_volume   580.33312347
_cell_formula_units_Z   1
loop_
 _symmetry_equiv_pos_site_id
 _symmetry_equiv_pos_as_xyz
  1  'x, y, z'
loop_
 _atom_site_type_symbol
 _atom_site_label
 _atom_site_symmetry_multiplicity
 _atom_site_fract_x
 _atom_site_fract_y
 _atom_site_fract_z
 _atom_site_occupancy
  Fe  Fe0  1  1.00176870  1.00235259  1.00188917  1
  Fe  Fe1  1  0.16908289  0.16908047  0.16983343  1
  Fe  Fe2  1  0.00433874  0.00271046  0.33607515  1
  Fe  Fe3  1  0.00298630  0.33471813  0.00304945  1
  Fe  Fe4  1  0.16908413  0.50248497  0.16924184  1
  Fe  Fe5  1  1.00168116  0.33444867  0.33527000  1
  Fe  Fe6  1  0.00292207  0.67018165  0.00305276  1
  Fe  Fe7  1  0.16915239  0.83568700  0.16913928  1
  Fe  Fe8  1  1.00125096  0.67008829  0.33483960  1
  Fe  Fe9  1  0.33607813  0.00278730  1.00234514  1
  Fe  Fe10  1  0.50161706  0.16991050  0.16775036  1
  Fe  Fe11  1  0.33385454  0.00278000  0.33603483  1
  Fe  Fe12  1  0.33604955  0.33547872  1.00221916  1
  Fe  Fe13  1  0.50244615  0.50248495  0.16940287  1
  Fe  Fe14  1  0.33567906  0.33354671  0.33437084  1
  Fe  Fe15  1  0.33568421  0.66898716  1.00196110  1
  Fe  Fe16  1  0.50154840  0.83485739  0.16844528  1
  Fe  Fe17  1  0.33603993  0.67092288  0.33463228  1
  Fe  Fe18  1  0.66940421  0.00271876  1.00171607  1
  Fe  Fe19  1  0.83655177  0.16997831  0.16776071  1
  Cr  Cr20  1  0.66877741  0.00291364  0.33633542  1
  Fe  Fe21  1  0.66821479  0.33432416  0.00270892  1
  Fe  Fe22  1  0.83572246  0.50241565  0.16907652  1
  Fe  Fe23  1  0.66989445  0.33663964  0.33490191  1
  Fe  Fe24  1  0.66864828  0.67020986  0.00314956  1
  Fe  Fe25  1  0.83655069  0.83485944  0.16776180  1
  Fe  Fe26  1  0.66996423  0.66826601  0.33490350  1
  Ni  Ni27  1  0.16896394  0.16678481  0.50172890  1
  Fe  Fe28  1  0.00264577  1.00208984  0.66928961  1
  Fe  Fe29  1  0.16823332  0.16877704  0.83522939  1
  Cr  Cr30  1  0.16818720  0.50197766  0.50253259  1
  Fe  Fe31  1  0.00303816  0.33419235  0.66892951  1
  Fe  Fe32  1  0.17044796  0.50221515  0.83527321  1
  Fe  Fe33  1  0.16967219  0.83745782  0.50261999  1
  Fe  Fe34  1  0.00270568  0.67096789  0.66935772  1
  Fe  Fe35  1  0.16855560  0.83626007  0.83549834  1
  Fe  Fe36  1  0.50079505  0.16849532  0.50364890  1
  Fe  Fe37  1  0.33578122  0.00243011  0.66886992  1
  Ni  Ni38  1  0.50210015  0.16910670  0.83547333  1
  Cr  Cr39  1  0.50395461  0.50268663  0.50249973  1
  Fe  Fe40  1  0.33574750  0.33422411  0.67065866  1
  Fe  Fe41  1  0.50161458  0.50210738  0.83520583  1
  Fe  Fe42  1  0.50046794  0.83653940  0.50338290  1
  Ni  Ni43  1  0.33553611  0.67030239  0.67147498  1
  Fe  Fe44  1  0.50350803  0.83636866  0.83543033  1
  Fe  Fe45  1  0.83721209  0.17042976  0.50367806  1
  Fe  Fe46  1  0.66882356  1.00209340  0.66982505  1
  Ni  Ni47  1  0.83502811  0.16658219  0.83612145  1
  Fe  Fe48  1  0.83628728  0.50179114  0.50241592  1
  Fe  Fe49  1  0.66846285  0.33416033  0.66963498  1
  Cr  Cr50  1  0.83587057  0.50323528  0.83463913  1
  Fe  Fe51  1  0.83711191  0.83503150  0.50367509  1
  Fe  Fe52  1  0.66880173  0.67100069  0.66919579  1
  Ni  Ni53  1  0.83600210  0.83740694  0.83639161  1
" 