6044,Ni9Fe26Cr64_13,-213.48774041017, 184.272702375949,Ni9Fe26Cr64,"# generated using pymatgen
 data_Cr35Fe14Ni5
_symmetry_space_group_name_H-M   'P 1'
_cell_length_a   7.54804499
_cell_length_b   7.54804499
_cell_length_c   10.67454759
_cell_angle_alpha   90.00000000
_cell_angle_beta   90.00000000
_cell_angle_gamma   90.00000000
_symmetry_Int_Tables_number   1
_chemical_formula_structural   Cr35Fe14Ni5
_chemical_formula_sum   'Cr35 Fe14 Ni5'
_cell_volume   608.16081961
_cell_formula_units_Z   1
loop_
 _symmetry_equiv_pos_site_id
 _symmetry_equiv_pos_as_xyz
  1  'x, y, z'
loop_
 _atom_site_type_symbol
 _atom_site_label
 _atom_site_symmetry_multiplicity
 _atom_site_fract_x
 _atom_site_fract_y
 _atom_site_fract_z
 _atom_site_occupancy
  Cr  Cr0  1  0.99283293  0.99406955  -0.00034551  1
  Fe  Fe1  1  0.16235683  0.15978380  0.16251964  1
  Cr  Cr2  1  0.99359076  0.99361785  0.32403440  1
  Cr  Cr3  1  0.99380757  0.32689710  -0.00250564  1
  Cr  Cr4  1  0.16223730  0.49711721  0.16015134  1
  Cr  Cr5  1  0.99366431  0.32744580  0.32476784  1
  Cr  Cr6  1  0.99240872  0.66292861  -0.00384286  1
  Fe  Fe7  1  0.16350047  0.82588429  0.16235149  1
  Cr  Cr8  1  0.99283077  0.66269029  0.32834713  1
  Cr  Cr9  1  0.32837607  0.99420148  -0.00488686  1
  Cr  Cr10  1  0.49466042  0.16066891  0.16449886  1
  Fe  Fe11  1  0.32683122  0.99316866  0.32635519  1
  Cr  Cr12  1  0.32858381  0.32863532  0.99404029  1
  Cr  Cr13  1  0.49562504  0.49728125  0.16269315  1
  Fe  Fe14  1  0.32873800  0.33012177  0.32877122  1
  Ni  Ni15  1  0.32983608  0.66278236  0.99360462  1
  Cr  Cr16  1  0.49411551  0.82633672  0.16080867  1
  Ni  Ni17  1  0.33053550  0.65861183  0.32897085  1
  Cr  Cr18  1  0.66273501  0.99293174  0.99201630  1
  Fe  Fe19  1  0.82635653  0.16042262  0.16206018  1
  Cr  Cr20  1  0.66342209  0.99416982  0.32890134  1
  Cr  Cr21  1  0.66157766  0.32836609  -0.00216151  1
  Fe  Fe22  1  0.82594354  0.49768005  0.16227270  1
  Fe  Fe23  1  0.66038339  0.33080778  0.32775181  1
  Fe  Fe24  1  0.66083612  0.66367433  -0.00484307  1
  Ni  Ni25  1  0.82747438  0.82677811  0.16137384  1
  Fe  Fe26  1  0.66125990  0.66088337  0.32764428  1
  Cr  Cr27  1  0.16060202  0.16080256  0.49390528  1
  Cr  Cr28  1  0.99151408  0.99152767  0.66023516  1
  Cr  Cr29  1  0.15855931  0.16167746  0.82718520  1
  Cr  Cr30  1  0.16184303  0.49540232  0.49624965  1
  Fe  Fe31  1  0.99413400  0.32884540  0.66086043  1
  Cr  Cr32  1  0.15910443  0.49574368  0.82730954  1
  Cr  Cr33  1  0.16220724  0.82763540  0.49081984  1
  Cr  Cr34  1  0.99225535  0.66278274  0.65941655  1
  Cr  Cr35  1  0.16335654  0.82645428  0.83045080  1
  Cr  Cr36  1  0.49642682  0.16192790  0.49357041  1
  Cr  Cr37  1  0.33012303  0.99389284  0.66218860  1
  Cr  Cr38  1  0.49758209  0.15839124  0.82613074  1
  Ni  Ni39  1  0.49683918  0.49483863  0.49023412  1
  Cr  Cr40  1  0.33084325  0.32988851  0.66067308  1
  Cr  Cr41  1  0.49580709  0.49789510  0.83151674  1
  Cr  Cr42  1  0.49436400  0.82701335  0.49186251  1
  Cr  Cr43  1  0.33065751  0.66011241  0.66174429  1
  Ni  Ni44  1  0.49788599  0.82650350  0.83016767  1
  Cr  Cr45  1  0.82677830  0.16181381  0.49836229  1
  Fe  Fe46  1  0.66024575  0.99149107  0.66192545  1
  Cr  Cr47  1  0.82756832  0.16205572  0.82426856  1
  Cr  Cr48  1  0.82613320  0.49341030  0.49370556  1
  Fe  Fe49  1  0.65992252  0.33040236  0.66048216  1
  Cr  Cr50  1  0.82863051  0.49383885  0.82921408  1
  Fe  Fe51  1  0.82597431  0.82760547  0.49311165  1
  Cr  Cr52  1  0.66059350  0.66292364  0.66062387  1
  Fe  Fe53  1  0.82579417  0.82743257  0.82870157  1
" 