4249,Ni9Fe87Cr2_3,-227.02097112708, 151.457630480737,Ni9Fe87Cr2,"# generated using pymatgen
 data_Cr2Fe47Ni5
_symmetry_space_group_name_H-M   'P 1'
_cell_length_a   7.41811242
_cell_length_b   7.41811242
_cell_length_c   10.49079519
_cell_angle_alpha   90.00000000
_cell_angle_beta   90.00000000
_cell_angle_gamma   90.00000000
_symmetry_Int_Tables_number   1
_chemical_formula_structural   Cr2Fe47Ni5
_chemical_formula_sum   'Cr2 Fe47 Ni5'
_cell_volume   577.29158895
_cell_formula_units_Z   1
loop_
 _symmetry_equiv_pos_site_id
 _symmetry_equiv_pos_as_xyz
  1  'x, y, z'
loop_
 _atom_site_type_symbol
 _atom_site_label
 _atom_site_symmetry_multiplicity
 _atom_site_fract_x
 _atom_site_fract_y
 _atom_site_fract_z
 _atom_site_occupancy
  Fe  Fe0  1  1.00239843  0.00465927  0.00487094  1
  Fe  Fe1  1  0.16973890  0.16984191  0.17002020  1
  Ni  Ni2  1  0.00382835  0.00332918  0.33632599  1
  Fe  Fe3  1  0.00339056  0.33651420  0.00332391  1
  Fe  Fe4  1  0.16994706  0.50339623  0.16995295  1
  Fe  Fe5  1  1.00170508  0.33764943  0.33544340  1
  Fe  Fe6  1  1.00224039  0.66911063  0.00404157  1
  Fe  Fe7  1  0.16976570  0.83670319  0.16957745  1
  Fe  Fe8  1  1.00182608  0.67098059  0.33689420  1
  Fe  Fe9  1  0.33754064  0.00473409  0.00400781  1
  Fe  Fe10  1  0.50383577  0.17026664  0.16999483  1
  Fe  Fe11  1  0.33788288  1.00162003  0.33549919  1
  Fe  Fe12  1  0.33657330  0.33645489  0.00350011  1
  Fe  Fe13  1  0.50403452  0.50339044  0.17040856  1
  Fe  Fe14  1  0.33753816  0.33760849  0.33560733  1
  Fe  Fe15  1  0.33743634  0.66912721  0.00409939  1
  Fe  Fe16  1  0.50390376  0.83604028  0.17009698  1
  Fe  Fe17  1  0.33634102  0.67070128  0.33645509  1
  Fe  Fe18  1  0.67005404  1.00327575  0.00342331  1
  Fe  Fe19  1  0.83645194  0.17000426  0.17024673  1
  Fe  Fe20  1  0.67124919  1.00170630  0.33682156  1
  Fe  Fe21  1  0.66998218  0.33656578  1.00232848  1
  Fe  Fe22  1  0.83573288  0.50343743  0.17012450  1
  Fe  Fe23  1  0.67072319  0.33626914  0.33733192  1
  Fe  Fe24  1  0.67015561  0.67005574  0.00423007  1
  Fe  Fe25  1  0.83617252  0.83627574  0.17154397  1
  Ni  Ni26  1  0.66915435  0.66897203  0.33677850  1
  Cr  Cr27  1  0.17059661  0.17084530  0.50325448  1
  Fe  Fe28  1  1.00011891  0.00451419  0.66901577  1
  Ni  Ni29  1  0.17000033  0.17037316  0.83734690  1
  Fe  Fe30  1  0.16925898  0.50570939  0.50316916  1
  Fe  Fe31  1  1.00199959  0.33720931  0.67147456  1
  Fe  Fe32  1  0.16995597  0.50208056  0.83680409  1
  Fe  Fe33  1  0.16862410  0.83549309  0.50353485  1
  Fe  Fe34  1  1.00101926  0.66833832  0.66887064  1
  Cr  Cr35  1  0.16921638  0.83777346  0.83541423  1
  Fe  Fe36  1  0.50625864  0.16967313  0.50344641  1
  Fe  Fe37  1  0.33956047  0.00486048  0.67043108  1
  Fe  Fe38  1  0.50302537  0.16999550  0.83633601  1
  Fe  Fe39  1  0.50436557  0.50326597  0.50305206  1
  Fe  Fe40  1  0.33794998  0.33730994  0.67115020  1
  Fe  Fe41  1  0.50301276  0.50286833  0.83639948  1
  Fe  Fe42  1  0.50362157  0.83666270  0.50285635  1
  Fe  Fe43  1  0.33853090  0.66817175  0.66907389  1
  Fe  Fe44  1  0.50446527  0.83711378  0.83698664  1
  Fe  Fe45  1  0.83519980  0.16892751  0.50285099  1
  Fe  Fe46  1  0.67028610  0.00348756  0.66972915  1
  Fe  Fe47  1  0.83729097  0.16992028  0.83641371  1
  Fe  Fe48  1  0.83607904  0.50284374  0.50321417  1
  Ni  Ni49  1  0.66994732  0.33677814  0.67002062  1
  Fe  Fe50  1  0.83691760  0.50274922  0.83648690  1
  Ni  Ni51  1  0.83578316  0.83579825  0.50292525  1
  Fe  Fe52  1  0.67015008  0.66938330  0.66896441  1
  Fe  Fe53  1  0.83527382  0.83727487  0.83594040  1
" 