3292,Ni9Fe84Cr6_19,-226.577690416361, 155.231859984323,Ni9Fe84Cr6,"# generated using pymatgen
 data_Cr4(Fe9Ni)5
_symmetry_space_group_name_H-M   'P 1'
_cell_length_a   7.42457720
_cell_length_b   7.42457720
_cell_length_c   10.49993777
_cell_angle_alpha   90.00000000
_cell_angle_beta   90.00000000
_cell_angle_gamma   90.00000000
_symmetry_Int_Tables_number   1
_chemical_formula_structural   Cr4(Fe9Ni)5
_chemical_formula_sum   'Cr4 Fe45 Ni5'
_cell_volume   578.80220796
_cell_formula_units_Z   1
loop_
 _symmetry_equiv_pos_site_id
 _symmetry_equiv_pos_as_xyz
  1  'x, y, z'
loop_
 _atom_site_type_symbol
 _atom_site_label
 _atom_site_symmetry_multiplicity
 _atom_site_fract_x
 _atom_site_fract_y
 _atom_site_fract_z
 _atom_site_occupancy
  Fe  Fe0  1  1.00062056  0.00301406  0.00307891  1
  Fe  Fe1  1  0.17034404  0.17140522  0.16950015  1
  Cr  Cr2  1  0.00303567  0.00317748  0.33554378  1
  Fe  Fe3  1  0.00382982  0.33578962  1.00256595  1
  Fe  Fe4  1  0.16855237  0.50230328  0.16956328  1
  Fe  Fe5  1  1.00254819  0.33756346  0.33649122  1
  Fe  Fe6  1  1.00198972  0.66977917  1.00270537  1
  Fe  Fe7  1  0.17027166  0.83486655  0.16959261  1
  Fe  Fe8  1  1.00285619  0.66794862  0.33603689  1
  Cr  Cr9  1  0.33699714  1.00255787  0.00377261  1
  Ni  Ni10  1  0.50276201  0.16756260  0.17176979  1
  Fe  Fe11  1  0.33796822  0.00312006  0.33562513  1
  Fe  Fe12  1  0.33466174  0.33602119  1.00247559  1
  Cr  Cr13  1  0.50195175  0.50300682  0.16903742  1
  Fe  Fe14  1  0.33548783  0.33489609  0.33652488  1
  Fe  Fe15  1  0.33608805  0.66913093  1.00153179  1
  Fe  Fe16  1  0.50394821  0.83779836  0.17004392  1
  Fe  Fe17  1  0.33512878  0.67055466  0.33755346  1
  Ni  Ni18  1  0.67098240  1.00197684  0.00388335  1
  Fe  Fe19  1  0.83516451  0.16938064  0.16983097  1
  Fe  Fe20  1  0.66794244  0.00343009  0.33560281  1
  Cr  Cr21  1  0.67036548  0.33501199  1.00191716  1
  Fe  Fe22  1  0.83809527  0.50317309  0.16979855  1
  Fe  Fe23  1  0.67053680  0.33471926  0.33683387  1
  Fe  Fe24  1  0.67049927  0.67233877  1.00179320  1
  Fe  Fe25  1  0.83437171  0.83602109  0.16842773  1
  Fe  Fe26  1  0.67059559  0.67042877  0.33695063  1
  Fe  Fe27  1  0.16961460  0.17030380  0.50364175  1
  Fe  Fe28  1  0.00327087  1.00260308  0.66892573  1
  Fe  Fe29  1  0.16815345  0.17091849  0.83544255  1
  Fe  Fe30  1  0.16934324  0.50260836  0.50302335  1
  Fe  Fe31  1  1.00280785  0.33670216  0.66952505  1
  Fe  Fe32  1  0.16930722  0.50311197  0.83599571  1
  Fe  Fe33  1  0.17004837  0.83567269  0.50391940  1
  Fe  Fe34  1  0.00320576  0.66927875  0.66983612  1
  Fe  Fe35  1  0.16849601  0.83454994  0.83507204  1
  Fe  Fe36  1  0.50348034  0.16952422  0.50221194  1
  Fe  Fe37  1  0.33610358  1.00223612  0.66972136  1
  Fe  Fe38  1  0.50366046  0.16979277  0.83559824  1
  Fe  Fe39  1  0.50304261  0.50267623  0.50292488  1
  Fe  Fe40  1  0.33622637  0.33672735  0.66958330  1
  Fe  Fe41  1  0.50226351  0.50398580  0.83524378  1
  Fe  Fe42  1  0.50311255  0.83638044  0.50315735  1
  Ni  Ni43  1  0.33593351  0.66956620  0.66968587  1
  Fe  Fe44  1  0.50419523  0.83479641  0.83540045  1
  Ni  Ni45  1  0.83551638  0.17020081  0.50389382  1
  Fe  Fe46  1  0.66920556  1.00263435  0.66974488  1
  Fe  Fe47  1  0.83677137  0.16898860  0.83510520  1
  Fe  Fe48  1  0.83619294  0.50224148  0.50327463  1
  Fe  Fe49  1  0.66954569  0.33679431  0.66968048  1
  Ni  Ni50  1  0.83686779  0.50395403  0.83540288  1
  Fe  Fe51  1  0.83541547  0.83611176  0.50350712  1
  Fe  Fe52  1  0.66917626  0.66915564  0.66982883  1
  Fe  Fe53  1  0.83589429  0.83595432  0.83664891  1
" 