8440,Ni9Fe84Cr6_0,-226.632521369455, 155.022118107925,Ni9Fe84Cr6,"# generated using pymatgen
 data_Cr4(Fe9Ni)5
_symmetry_space_group_name_H-M   'P 1'
_cell_length_a   7.43047176
_cell_length_b   7.43047176
_cell_length_c   10.50827394
_cell_angle_alpha   90.00000000
_cell_angle_beta   90.00000000
_cell_angle_gamma   90.00000000
_symmetry_Int_Tables_number   1
_chemical_formula_structural   Cr4(Fe9Ni)5
_chemical_formula_sum   'Cr4 Fe45 Ni5'
_cell_volume   580.18188131
_cell_formula_units_Z   1
loop_
 _symmetry_equiv_pos_site_id
 _symmetry_equiv_pos_as_xyz
  1  'x, y, z'
loop_
 _atom_site_type_symbol
 _atom_site_label
 _atom_site_symmetry_multiplicity
 _atom_site_fract_x
 _atom_site_fract_y
 _atom_site_fract_z
 _atom_site_occupancy
  Cr  Cr0  1  1.00232444  1.00237222  1.00238431  1
  Fe  Fe1  1  0.17043701  0.17052969  0.16981077  1
  Fe  Fe2  1  1.00182604  1.00239551  0.33598319  1
  Fe  Fe3  1  0.00400817  0.33734234  1.00192359  1
  Fe  Fe4  1  0.16966526  0.50243220  0.16907489  1
  Fe  Fe5  1  1.00189907  0.33523227  0.33627574  1
  Fe  Fe6  1  1.00227168  0.66745474  0.00247069  1
  Fe  Fe7  1  0.17046518  0.83442177  0.16980940  1
  Fe  Fe8  1  1.00195395  0.66975595  0.33573170  1
  Fe  Fe9  1  0.33670983  0.00343638  0.00261691  1
  Fe  Fe10  1  0.50196793  0.16858285  0.17013287  1
  Fe  Fe11  1  0.33633936  1.00243409  0.33633142  1
  Fe  Fe12  1  0.33440601  0.33595387  0.00282085  1
  Ni  Ni13  1  0.50168126  0.50366083  0.16965597  1
  Fe  Fe14  1  0.33670631  0.33563501  0.33538240  1
  Fe  Fe15  1  0.33529506  0.66799767  0.00337486  1
  Fe  Fe16  1  0.50277238  0.83554211  0.16914284  1
  Fe  Fe17  1  0.33661240  0.66931565  0.33566539  1
  Fe  Fe18  1  0.66842844  1.00169917  0.00384696  1
  Fe  Fe19  1  0.83497889  0.16938035  0.17096200  1
  Ni  Ni20  1  0.66937627  0.00276641  0.33465845  1
  Cr  Cr21  1  0.66882179  0.33600879  0.00296135  1
  Fe  Fe22  1  0.83609507  0.50323594  0.16981102  1
  Fe  Fe23  1  0.66877759  0.33550749  0.33522968  1
  Fe  Fe24  1  0.66981781  0.66976047  0.00343573  1
  Fe  Fe25  1  0.83414679  0.83476857  0.17013246  1
  Fe  Fe26  1  0.66881685  0.66938980  0.33551294  1
  Fe  Fe27  1  0.16886250  0.16891735  0.50340756  1
  Ni  Ni28  1  0.00270788  0.00327071  0.66859498  1
  Fe  Fe29  1  0.16985295  0.16943570  0.83416637  1
  Fe  Fe30  1  0.16799360  0.50139275  0.50190660  1
  Ni  Ni31  1  1.00122539  0.33482140  0.67011677  1
  Fe  Fe32  1  0.16818595  0.50158477  0.83640181  1
  Fe  Fe33  1  0.16843488  0.83707449  0.50227684  1
  Fe  Fe34  1  1.00144443  0.66971601  0.66918127  1
  Fe  Fe35  1  0.16762861  0.83636146  0.83529073  1
  Fe  Fe36  1  0.50243965  0.16846704  0.50244539  1
  Ni  Ni37  1  0.33419986  0.00386238  0.66838763  1
  Fe  Fe38  1  0.50137711  0.16954380  0.83480254  1
  Fe  Fe39  1  0.50324001  0.50177294  0.50111250  1
  Fe  Fe40  1  0.33473820  0.33314913  0.66918106  1
  Fe  Fe41  1  0.50252393  0.50096820  0.83645875  1
  Fe  Fe42  1  0.50324730  0.83714403  0.50189327  1
  Cr  Cr43  1  0.33546026  0.66898469  0.66781423  1
  Cr  Cr44  1  0.50351604  0.83727289  0.83734199  1
  Fe  Fe45  1  0.83607821  0.16890780  0.50268119  1
  Fe  Fe46  1  0.67026062  0.00358698  0.66786682  1
  Fe  Fe47  1  0.83614727  0.16897654  0.83374083  1
  Fe  Fe48  1  0.83614800  0.50220135  0.50284285  1
  Fe  Fe49  1  0.66945239  0.33500631  0.66943483  1
  Fe  Fe50  1  0.83666843  0.50319321  0.83473433  1
  Fe  Fe51  1  0.83570081  0.83627535  0.50238483  1
  Fe  Fe52  1  0.67199330  0.66879237  0.66844029  1
  Fe  Fe53  1  0.83677672  0.83521334  0.83486049  1
" 