2147,Ni9Fe57Cr33_10,-222.012833022821, 171.204450482961,Ni9Fe57Cr33,"# generated using pymatgen
 data_Cr19(Fe6Ni)5
_symmetry_space_group_name_H-M   'P 1'
_cell_length_a   7.49212744
_cell_length_b   7.49212744
_cell_length_c   10.59546824
_cell_angle_alpha   90.00000000
_cell_angle_beta   90.00000000
_cell_angle_gamma   90.00000000
_symmetry_Int_Tables_number   1
_chemical_formula_structural   Cr19(Fe6Ni)5
_chemical_formula_sum   'Cr19 Fe30 Ni5'
_cell_volume   594.74454408
_cell_formula_units_Z   1
loop_
 _symmetry_equiv_pos_site_id
 _symmetry_equiv_pos_as_xyz
  1  'x, y, z'
loop_
 _atom_site_type_symbol
 _atom_site_label
 _atom_site_symmetry_multiplicity
 _atom_site_fract_x
 _atom_site_fract_y
 _atom_site_fract_z
 _atom_site_occupancy
  Fe  Fe0  1  0.00015558  -0.00136661  0.99681778  1
  Fe  Fe1  1  0.16549204  0.16734148  0.16425346  1
  Fe  Fe2  1  0.99544628  -0.00132447  0.33377838  1
  Fe  Fe3  1  -0.00045667  0.33175714  -0.00133269  1
  Fe  Fe4  1  0.16420888  0.49620604  0.16640021  1
  Cr  Cr5  1  0.00007581  0.33102827  0.33483763  1
  Cr  Cr6  1  0.99732309  0.66339343  0.99580451  1
  Cr  Cr7  1  0.16251318  0.83111804  0.16688361  1
  Fe  Fe8  1  0.99697767  0.66246316  0.33121196  1
  Fe  Fe9  1  0.32973028  0.00082012  0.99740514  1
  Fe  Fe10  1  0.49593900  0.16824780  0.16416924  1
  Cr  Cr11  1  0.33210774  0.00185146  0.33199744  1
  Fe  Fe12  1  0.33132665  0.32979811  -0.00113115  1
  Fe  Fe13  1  0.49754285  0.49529656  0.16426070  1
  Fe  Fe14  1  0.33169528  0.33368493  0.33247329  1
  Cr  Cr15  1  0.33183234  0.66511165  -0.00150138  1
  Cr  Cr16  1  0.49638101  0.83124329  0.16695638  1
  Fe  Fe17  1  0.33108661  0.65967378  0.33251461  1
  Cr  Cr18  1  0.66252013  0.99825414  -0.00019264  1
  Cr  Cr19  1  0.83239216  0.16463064  0.16526893  1
  Fe  Fe20  1  0.66711333  -0.00136933  0.33275184  1
  Fe  Fe21  1  0.66428029  0.33277140  -0.00096990  1
  Ni  Ni22  1  0.83230175  0.49649032  0.16255402  1
  Cr  Cr23  1  0.66447207  0.33239669  0.33072416  1
  Cr  Cr24  1  0.66572227  0.66467858  0.99825039  1
  Fe  Fe25  1  0.83321201  0.83035751  0.16638218  1
  Cr  Cr26  1  0.66476635  0.66453049  0.33129276  1
  Ni  Ni27  1  0.16671511  0.16604800  0.49856347  1
  Cr  Cr28  1  0.00129856  0.00002588  0.66391650  1
  Fe  Fe29  1  0.16811485  0.16593849  0.83213483  1
  Ni  Ni30  1  0.16680031  0.49819890  0.49706771  1
  Cr  Cr31  1  -0.00020299  0.33199057  0.66274755  1
  Fe  Fe32  1  0.16523255  0.49501538  0.83138171  1
  Cr  Cr33  1  0.16458885  0.82989005  0.49580381  1
  Cr  Cr34  1  0.99715999  0.66297093  0.66662718  1
  Fe  Fe35  1  0.16593512  0.83425028  0.83212537  1
  Cr  Cr36  1  0.50128072  0.16620272  0.50143268  1
  Fe  Fe37  1  0.33341697  0.00045633  0.66547701  1
  Fe  Fe38  1  0.49656096  0.16482908  0.82978757  1
  Fe  Fe39  1  0.49721470  0.49834539  0.50015813  1
  Fe  Fe40  1  0.33116482  0.33178578  0.66394804  1
  Cr  Cr41  1  0.49998925  0.49646147  0.83016405  1
  Fe  Fe42  1  0.49940058  0.83115194  0.49864548  1
  Cr  Cr43  1  0.33187317  0.66683856  0.66436207  1
  Fe  Fe44  1  0.49929469  0.83416351  0.83003325  1
  Fe  Fe45  1  0.83253882  0.16466877  0.49878562  1
  Fe  Fe46  1  0.66470520  0.99614929  0.66568111  1
  Cr  Cr47  1  0.83014169  0.16779884  0.83130497  1
  Fe  Fe48  1  0.83071012  0.49850839  0.49902215  1
  Ni  Ni49  1  0.66520235  0.33283769  0.66457754  1
  Fe  Fe50  1  0.83030124  0.49716994  0.83080612  1
  Fe  Fe51  1  0.83031028  0.83204826  0.49869007  1
  Ni  Ni52  1  0.66423685  0.66509053  0.66458370  1
  Fe  Fe53  1  0.82947498  0.83169818  0.82992917  1
" 