6399,Ni9Fe26Cr64_3,-213.273832847999, 182.632918342837,Ni9Fe26Cr64,"# generated using pymatgen
 data_Cr35Fe14Ni5
_symmetry_space_group_name_H-M   'P 1'
_cell_length_a   7.54071642
_cell_length_b   7.54071642
_cell_length_c   10.66418343
_cell_angle_alpha   90.00000000
_cell_angle_beta   90.00000000
_cell_angle_gamma   90.00000000
_symmetry_Int_Tables_number   1
_chemical_formula_structural   Cr35Fe14Ni5
_chemical_formula_sum   'Cr35 Fe14 Ni5'
_cell_volume   606.39110788
_cell_formula_units_Z   1
loop_
 _symmetry_equiv_pos_site_id
 _symmetry_equiv_pos_as_xyz
  1  'x, y, z'
loop_
 _atom_site_type_symbol
 _atom_site_label
 _atom_site_symmetry_multiplicity
 _atom_site_fract_x
 _atom_site_fract_y
 _atom_site_fract_z
 _atom_site_occupancy
  Fe  Fe0  1  0.99181808  -0.00477646  0.99411226  1
  Cr  Cr1  1  0.16221480  0.16131640  0.16180669  1
  Cr  Cr2  1  -0.00395361  0.99260487  0.33060438  1
  Fe  Fe3  1  0.99329912  0.32783506  0.99178320  1
  Cr  Cr4  1  0.16301991  0.49025596  0.16262851  1
  Fe  Fe5  1  -0.00460421  0.32714396  0.32807795  1
  Cr  Cr6  1  -0.00398413  0.65985797  -0.00469823  1
  Cr  Cr7  1  0.16428925  0.83255226  0.16128053  1
  Cr  Cr8  1  -0.00417449  0.66104291  0.32747512  1
  Fe  Fe9  1  0.33311193  0.99466291  -0.00470241  1
  Fe  Fe10  1  0.49504735  0.15964818  0.16014007  1
  Ni  Ni11  1  0.33085048  -0.00053254  0.32616601  1
  Cr  Cr12  1  0.32806435  0.32617814  0.99439687  1
  Cr  Cr13  1  0.49588506  0.49634608  0.16297588  1
  Fe  Fe14  1  0.33042868  0.32538011  0.32840864  1
  Cr  Cr15  1  0.32731882  0.66295730  0.99335983  1
  Fe  Fe16  1  0.49476114  0.83174757  0.15950697  1
  Cr  Cr17  1  0.32709138  0.66454880  0.32890854  1
  Ni  Ni18  1  0.65855184  -0.00451465  0.99433110  1
  Cr  Cr19  1  0.82972615  0.16123645  0.16032744  1
  Cr  Cr20  1  0.65776201  -0.00300041  0.32837996  1
  Cr  Cr21  1  0.66130382  0.32601601  0.99101567  1
  Cr  Cr22  1  0.82579697  0.49284539  0.15949470  1
  Cr  Cr23  1  0.65913456  0.32527727  0.33119648  1
  Ni  Ni24  1  0.66136965  0.66592940  0.99435139  1
  Cr  Cr25  1  0.82440968  0.83026045  0.16051732  1
  Cr  Cr26  1  0.66235479  0.66288019  0.32707362  1
  Cr  Cr27  1  0.16241730  0.16145612  0.49315827  1
  Fe  Fe28  1  0.99384379  -0.00193566  0.66351795  1
  Cr  Cr29  1  0.15936841  0.16081215  0.83103479  1
  Cr  Cr30  1  0.16561069  0.49249723  0.49416127  1
  Cr  Cr31  1  0.99457155  0.32996489  0.66645601  1
  Ni  Ni32  1  0.16445253  0.49438906  0.82878105  1
  Cr  Cr33  1  0.16364201  0.83119755  0.49886341  1
  Cr  Cr34  1  -0.00222362  0.66144128  0.66191224  1
  Cr  Cr35  1  0.16393606  0.82993058  0.82579788  1
  Fe  Fe36  1  0.49205670  0.16113145  0.49397739  1
  Cr  Cr37  1  0.33067555  -0.00315902  0.66364984  1
  Fe  Fe38  1  0.49548879  0.15916352  0.83023247  1
  Fe  Fe39  1  0.49431397  0.49376670  0.49510564  1
  Cr  Cr40  1  0.33000839  0.32709060  0.66161839  1
  Cr  Cr41  1  0.49586992  0.49879152  0.82633706  1
  Cr  Cr42  1  0.49407984  0.82585907  0.49630901  1
  Fe  Fe43  1  0.32923341  0.66027316  0.66308134  1
  Fe  Fe44  1  0.49665130  0.83115841  0.83044531  1
  Cr  Cr45  1  0.83042136  0.16137636  0.49670378  1
  Cr  Cr46  1  0.66028026  -0.00137498  0.66186325  1
  Ni  Ni47  1  0.82672753  0.15961786  0.83060316  1
  Cr  Cr48  1  0.82618208  0.49395246  0.49356300  1
  Cr  Cr49  1  0.66073740  0.32515515  0.66294145  1
  Fe  Fe50  1  0.83007392  0.49488540  0.83062531  1
  Cr  Cr51  1  0.82773168  0.83027012  0.49634242  1
  Cr  Cr52  1  0.66316308  0.66123672  0.66187665  1
  Cr  Cr53  1  0.82601698  0.83157700  0.82834742  1
" 