7529,Ni9Fe62Cr27_2,-223.014036276547, 168.360275883511,Ni9Fe62Cr27,"# generated using pymatgen
 data_Cr16Fe33Ni5
_symmetry_space_group_name_H-M   'P 1'
_cell_length_a   7.47974337
_cell_length_b   7.47974337
_cell_length_c   10.57795452
_cell_angle_alpha   90.00000000
_cell_angle_beta   90.00000000
_cell_angle_gamma   90.00000000
_symmetry_Int_Tables_number   1
_chemical_formula_structural   Cr16Fe33Ni5
_chemical_formula_sum   'Cr16 Fe33 Ni5'
_cell_volume   591.80017719
_cell_formula_units_Z   1
loop_
 _symmetry_equiv_pos_site_id
 _symmetry_equiv_pos_as_xyz
  1  'x, y, z'
loop_
 _atom_site_type_symbol
 _atom_site_label
 _atom_site_symmetry_multiplicity
 _atom_site_fract_x
 _atom_site_fract_y
 _atom_site_fract_z
 _atom_site_occupancy
  Fe  Fe0  1  0.99609717  0.99771892  0.00086891  1
  Cr  Cr1  1  0.16747282  0.16532314  0.16605793  1
  Fe  Fe2  1  0.99779421  0.99804873  0.33315138  1
  Cr  Cr3  1  -0.00055376  0.33234391  -0.00074641  1
  Fe  Fe4  1  0.16487300  0.49923379  0.16714119  1
  Fe  Fe5  1  -0.00004370  0.33247878  0.33220857  1
  Cr  Cr6  1  -0.00036682  0.66601921  -0.00029207  1
  Fe  Fe7  1  0.16575304  0.83316155  0.16623275  1
  Fe  Fe8  1  -0.00056810  0.66679039  0.33144965  1
  Fe  Fe9  1  0.33494035  0.99672658  -0.00030645  1
  Fe  Fe10  1  0.50039459  0.16338124  0.16632519  1
  Fe  Fe11  1  0.33467824  -0.00026010  0.33395577  1
  Fe  Fe12  1  0.33464956  0.33362689  0.99838533  1
  Cr  Cr13  1  0.49780363  0.50019630  0.16560143  1
  Fe  Fe14  1  0.33205754  0.33108582  0.33470359  1
  Fe  Fe15  1  0.33439725  0.66732976  0.99875704  1
  Fe  Fe16  1  0.49896841  0.83633704  0.16509376  1
  Cr  Cr17  1  0.33243906  0.66777589  0.33389955  1
  Ni  Ni18  1  0.66290039  0.99835163  0.00114152  1
  Ni  Ni19  1  0.83329418  0.16259400  0.16670058  1
  Fe  Fe20  1  0.66460416  0.99896835  0.33229451  1
  Cr  Cr21  1  0.66632134  0.33170429  0.99789688  1
  Fe  Fe22  1  0.83357463  0.49835945  0.16644455  1
  Cr  Cr23  1  0.66519073  0.33001101  0.33320902  1
  Ni  Ni24  1  0.66428458  0.66833718  0.00039480  1
  Fe  Fe25  1  0.83183522  0.83476568  0.16458376  1
  Cr  Cr26  1  0.66559186  0.66966715  0.33030415  1
  Fe  Fe27  1  0.16746318  0.16451295  0.49674236  1
  Cr  Cr28  1  0.00123779  0.99805263  0.66441186  1
  Cr  Cr29  1  0.16811310  0.16344075  0.83536285  1
  Fe  Fe30  1  0.16774232  0.49965503  0.49848493  1
  Cr  Cr31  1  -0.00058998  0.33176721  0.66606706  1
  Fe  Fe32  1  0.16751025  0.50165766  0.83219541  1
  Fe  Fe33  1  0.16679044  0.83313249  0.49890943  1
  Fe  Fe34  1  0.00224658  0.66581198  0.66609556  1
  Fe  Fe35  1  0.16846227  0.83130093  0.83254822  1
  Ni  Ni36  1  0.49802693  0.16290466  0.49898273  1
  Fe  Fe37  1  0.33485105  0.99727500  0.66475112  1
  Fe  Fe38  1  0.49948406  0.16292893  0.83191469  1
  Fe  Fe39  1  0.49819657  0.49909677  0.49879177  1
  Cr  Cr40  1  0.33393148  0.33195413  0.66469796  1
  Fe  Fe41  1  0.49873376  0.50065957  0.83376347  1
  Ni  Ni42  1  0.49823668  0.83482159  0.49994581  1
  Fe  Fe43  1  0.33054202  0.66796787  0.66488945  1
  Fe  Fe44  1  0.49768258  0.83399862  0.83335379  1
  Fe  Fe45  1  0.83026111  0.16284934  0.49806376  1
  Fe  Fe46  1  0.66253261  0.00086930  0.66442267  1
  Cr  Cr47  1  0.83096136  0.16406245  0.83136843  1
  Cr  Cr48  1  0.83367273  0.50048448  0.49964625  1
  Fe  Fe49  1  0.66413535  0.33043504  0.66474983  1
  Fe  Fe50  1  0.83110567  0.50054525  0.83183723  1
  Fe  Fe51  1  0.83072582  0.83505255  0.49866604  1
  Cr  Cr52  1  0.66280477  0.66650502  0.66545852  1
  Cr  Cr53  1  0.83092735  0.83235270  0.83259337  1
" 