2056,Ni9Fe26Cr64_7,-213.162508878774, 180.504215453211,Ni9Fe26Cr64,"# generated using pymatgen
 data_Cr35Fe14Ni5
_symmetry_space_group_name_H-M   'P 1'
_cell_length_a   7.54833699
_cell_length_b   7.54833699
_cell_length_c   10.67496054
_cell_angle_alpha   90.00000000
_cell_angle_beta   90.00000000
_cell_angle_gamma   90.00000000
_symmetry_Int_Tables_number   1
_chemical_formula_structural   Cr35Fe14Ni5
_chemical_formula_sum   'Cr35 Fe14 Ni5'
_cell_volume   608.23140338
_cell_formula_units_Z   1
loop_
 _symmetry_equiv_pos_site_id
 _symmetry_equiv_pos_as_xyz
  1  'x, y, z'
loop_
 _atom_site_type_symbol
 _atom_site_label
 _atom_site_symmetry_multiplicity
 _atom_site_fract_x
 _atom_site_fract_y
 _atom_site_fract_z
 _atom_site_occupancy
  Cr  Cr0  1  -0.00447076  -0.00396132  -0.00322056  1
  Fe  Fe1  1  0.16125126  0.16286439  0.16227125  1
  Fe  Fe2  1  0.99347398  -0.00406194  0.32717701  1
  Fe  Fe3  1  -0.00425386  0.32816539  0.99421926  1
  Cr  Cr4  1  0.16071614  0.49182066  0.15908406  1
  Fe  Fe5  1  0.99419009  0.32631949  0.32808461  1
  Fe  Fe6  1  -0.00535902  0.66189408  -0.00510738  1
  Cr  Cr7  1  0.15879213  0.82557633  0.16204010  1
  Cr  Cr8  1  0.99321468  0.66035909  0.32835147  1
  Cr  Cr9  1  0.32540161  0.99411185  0.99263105  1
  Cr  Cr10  1  0.49478364  0.16067068  0.16216407  1
  Cr  Cr11  1  0.32399952  -0.00505124  0.32911983  1
  Fe  Fe12  1  0.32786986  0.32696275  -0.00467117  1
  Cr  Cr13  1  0.49199995  0.49188694  0.16219579  1
  Ni  Ni14  1  0.32432739  0.32527415  0.32582209  1
  Cr  Cr15  1  0.32966689  0.66219966  0.99393784  1
  Cr  Cr16  1  0.49749477  0.83063682  0.16355982  1
  Cr  Cr17  1  0.32740564  0.65971147  0.32745300  1
  Fe  Fe18  1  0.65966861  0.99280484  0.99453961  1
  Cr  Cr19  1  0.82770535  0.16004431  0.16051159  1
  Ni  Ni20  1  0.66667354  -0.00331015  0.32458215  1
  Cr  Cr21  1  0.66250981  0.32990824  0.99290266  1
  Cr  Cr22  1  0.83150121  0.49354342  0.16101652  1
  Fe  Fe23  1  0.66086155  0.32680201  0.32767830  1
  Cr  Cr24  1  0.66100898  0.65881308  -0.00463848  1
  Fe  Fe25  1  0.82726724  0.82833937  0.16167587  1
  Cr  Cr26  1  0.66298257  0.65718610  0.32808768  1
  Cr  Cr27  1  0.16087604  0.16468296  0.49388302  1
  Cr  Cr28  1  -0.00323702  -0.00266285  0.66116945  1
  Cr  Cr29  1  0.16077987  0.16744718  0.82723716  1
  Cr  Cr30  1  0.15965003  0.49379653  0.49550377  1
  Ni  Ni31  1  -0.00506814  0.33118870  0.65995080  1
  Cr  Cr32  1  0.16171458  0.49601415  0.82876269  1
  Cr  Cr33  1  0.15904606  0.82523225  0.49688707  1
  Fe  Fe34  1  0.99172346  0.66040312  0.66081469  1
  Fe  Fe35  1  0.16007578  0.82751413  0.82822449  1
  Cr  Cr36  1  0.49558219  0.16101097  0.49240730  1
  Cr  Cr37  1  0.32595268  0.99417196  0.66300923  1
  Cr  Cr38  1  0.49456608  0.16134246  0.82828010  1
  Cr  Cr39  1  0.49237514  0.49303072  0.49335842  1
  Fe  Fe40  1  0.32831585  0.32918052  0.66088402  1
  Fe  Fe41  1  0.49579326  0.49576152  0.82658258  1
  Cr  Cr42  1  0.49773805  0.82971471  0.49325588  1
  Cr  Cr43  1  0.33051556  0.66321042  0.66304509  1
  Ni  Ni44  1  0.49568015  0.82530425  0.82803282  1
  Cr  Cr45  1  0.82730192  0.16159157  0.49400746  1
  Cr  Cr46  1  0.66057348  0.99413973  0.66447600  1
  Cr  Cr47  1  0.82856040  0.16161746  0.82857641  1
  Fe  Fe48  1  0.82862308  0.49487261  0.49642214  1
  Cr  Cr49  1  0.66378069  0.33203085  0.66025285  1
  Cr  Cr50  1  0.83290732  0.49572872  0.82586465  1
  Cr  Cr51  1  0.82616670  0.82802654  0.49457666  1
  Ni  Ni52  1  0.66133540  0.65862801  0.66236002  1
  Cr  Cr53  1  0.82722082  0.82674258  0.82993944  1
" 