3951,Ni9Fe87Cr2_13,-226.809314680062, 152.347284873426,Ni9Fe87Cr2,"# generated using pymatgen
 data_Cr2Fe47Ni5
_symmetry_space_group_name_H-M   'P 1'
_cell_length_a   7.41521194
_cell_length_b   7.41521194
_cell_length_c   10.48669329
_cell_angle_alpha   90.00000000
_cell_angle_beta   90.00000000
_cell_angle_gamma   90.00000000
_symmetry_Int_Tables_number   1
_chemical_formula_structural   Cr2Fe47Ni5
_chemical_formula_sum   'Cr2 Fe47 Ni5'
_cell_volume   576.61469040
_cell_formula_units_Z   1
loop_
 _symmetry_equiv_pos_site_id
 _symmetry_equiv_pos_as_xyz
  1  'x, y, z'
loop_
 _atom_site_type_symbol
 _atom_site_label
 _atom_site_symmetry_multiplicity
 _atom_site_fract_x
 _atom_site_fract_y
 _atom_site_fract_z
 _atom_site_occupancy
  Fe  Fe0  1  0.00349593  0.00367880  1.00346365  1
  Fe  Fe1  1  0.17084829  0.17070817  0.17063450  1
  Fe  Fe2  1  0.00376197  1.00333169  0.33705268  1
  Fe  Fe3  1  0.00349594  0.33657108  1.00338688  1
  Fe  Fe4  1  0.17042979  0.50384086  0.17035616  1
  Fe  Fe5  1  0.00376225  0.33691733  0.33712981  1
  Fe  Fe6  1  0.00356969  0.67023578  1.00349366  1
  Fe  Fe7  1  0.17043686  0.83593643  0.17035615  1
  Ni  Ni8  1  0.00349574  0.67008407  0.33638831  1
  Fe  Fe9  1  0.33587930  1.00262101  0.00429382  1
  Fe  Fe10  1  0.50356917  0.17069928  0.17009003  1
  Fe  Fe11  1  0.33506723  1.00234241  0.33629807  1
  Fe  Fe12  1  0.33622232  0.33797240  0.00463771  1
  Ni  Ni13  1  0.50377294  0.50303213  0.16995902  1
  Fe  Fe14  1  0.33541032  0.33825111  0.33595419  1
  Fe  Fe15  1  0.33720744  0.66989164  0.00380607  1
  Fe  Fe16  1  0.50349543  0.83642856  0.17008793  1
  Fe  Fe17  1  0.33666903  0.66989105  0.33636836  1
  Fe  Fe18  1  0.67111044  1.00269479  0.00436879  1
  Fe  Fe19  1  0.83606824  0.17070821  0.17001302  1
  Fe  Fe20  1  0.67165464  1.00207656  0.33588167  1
  Fe  Fe21  1  0.67076787  0.33789823  0.00471222  1
  Fe  Fe22  1  0.83656202  0.50376709  0.17043087  1
  Fe  Fe23  1  0.67131167  0.33851703  0.33553785  1
  Fe  Fe24  1  0.66970864  0.66989173  1.00318448  1
  Fe  Fe25  1  0.83655341  0.83601016  0.17043083  1
  Fe  Fe26  1  0.67032064  0.66989104  0.33706666  1
  Ni  Ni27  1  0.16879409  0.16988173  0.50417996  1
  Fe  Fe28  1  1.00321509  1.00281603  0.66997096  1
  Fe  Fe29  1  0.16852385  0.17016260  0.83632136  1
  Fe  Fe30  1  0.16977448  0.50320208  0.50349523  1
  Fe  Fe31  1  1.00321548  0.33750717  0.66997055  1
  Fe  Fe32  1  0.17004683  0.50353651  0.83663433  1
  Fe  Fe33  1  0.16984922  0.83711898  0.50342039  1
  Ni  Ni34  1  1.00279856  0.67016231  0.67060379  1
  Fe  Fe35  1  0.17012176  0.83678633  0.83670909  1
  Cr  Cr36  1  0.50288130  0.17046616  0.50324592  1
  Fe  Fe37  1  0.33481584  1.00092177  0.66989536  1
  Cr  Cr38  1  0.50349517  0.17046612  0.83677018  1
  Fe  Fe39  1  0.50321757  0.50478370  0.50324981  1
  Fe  Fe40  1  0.33481567  0.33940383  0.66989493  1
  Fe  Fe41  1  0.50376333  0.50540338  0.83714790  1
  Fe  Fe42  1  0.50321721  0.83561668  0.50387148  1
  Fe  Fe43  1  0.33704021  0.67016054  0.67031074  1
  Fe  Fe44  1  0.50376298  0.83499716  0.83652630  1
  Fe  Fe45  1  0.83899309  0.17016270  0.50345314  1
  Fe  Fe46  1  0.67245262  1.00059456  0.67023457  1
  Fe  Fe47  1  0.83846660  0.17016267  0.83701976  1
  Fe  Fe48  1  0.83749162  0.50353185  0.50383841  1
  Fe  Fe49  1  0.67245239  0.33973148  0.67023454  1
  Fe  Fe50  1  0.83667452  0.50380439  0.83621636  1
  Fe  Fe51  1  0.83741692  0.83679075  0.50376363  1
  Ni  Ni52  1  0.67019895  0.67016365  0.67008901  1
  Fe  Fe53  1  0.83659960  0.83651842  0.83629108  1
" 