7922,Ni9Fe62Cr27_0,-223.088416377713, 162.152321240088,Ni9Fe62Cr27,"# generated using pymatgen
 data_Cr16Fe33Ni5
_symmetry_space_group_name_H-M   'P 1'
_cell_length_a   7.47957928
_cell_length_b   7.47957928
_cell_length_c   10.57772246
_cell_angle_alpha   90.00000000
_cell_angle_beta   90.00000000
_cell_angle_gamma   90.00000000
_symmetry_Int_Tables_number   1
_chemical_formula_structural   Cr16Fe33Ni5
_chemical_formula_sum   'Cr16 Fe33 Ni5'
_cell_volume   591.76122919
_cell_formula_units_Z   1
loop_
 _symmetry_equiv_pos_site_id
 _symmetry_equiv_pos_as_xyz
  1  'x, y, z'
loop_
 _atom_site_type_symbol
 _atom_site_label
 _atom_site_symmetry_multiplicity
 _atom_site_fract_x
 _atom_site_fract_y
 _atom_site_fract_z
 _atom_site_occupancy
  Fe  Fe0  1  0.00165167  0.99747508  0.00025283  1
  Fe  Fe1  1  0.17009682  0.16414944  0.16572520  1
  Cr  Cr2  1  0.00215135  0.99712444  0.33235631  1
  Cr  Cr3  1  0.00069755  0.33108143  0.99875512  1
  Fe  Fe4  1  0.16742502  0.50174981  0.16605380  1
  Cr  Cr5  1  0.00022687  0.33409872  0.33317003  1
  Fe  Fe6  1  0.00014453  0.66589564  0.00116704  1
  Fe  Fe7  1  0.16684783  0.83178470  0.16528142  1
  Ni  Ni8  1  0.00038710  0.66732744  0.33271426  1
  Fe  Fe9  1  0.33342206  0.99883723  -0.00047597  1
  Fe  Fe10  1  0.49719268  0.16391376  0.16670546  1
  Fe  Fe11  1  0.33563452  0.99716801  0.33164439  1
  Fe  Fe12  1  0.33285252  0.33084170  0.00022736  1
  Fe  Fe13  1  0.49562143  0.49931095  0.16598021  1
  Fe  Fe14  1  0.33213369  0.33270339  0.33120687  1
  Fe  Fe15  1  0.33112370  0.66768622  0.00128655  1
  Ni  Ni16  1  0.49754236  0.83347946  0.16628709  1
  Fe  Fe17  1  0.32982290  0.66731651  0.33101548  1
  Fe  Fe18  1  0.66270994  -0.00027423  0.00029846  1
  Cr  Cr19  1  0.83210793  0.16223043  0.16626384  1
  Fe  Fe20  1  0.66475546  0.99769373  0.33285625  1
  Cr  Cr21  1  0.66590741  0.33407349  0.99763645  1
  Fe  Fe22  1  0.83460613  0.50124203  0.16567592  1
  Cr  Cr23  1  0.66502101  0.33302001  0.33280007  1
  Cr  Cr24  1  0.66432782  0.66704159  0.00171188  1
  Fe  Fe25  1  0.83362441  0.83157217  0.16519427  1
  Cr  Cr26  1  0.66548628  0.66818072  0.33063432  1
  Cr  Cr27  1  0.16754784  0.16464250  0.49742112  1
  Fe  Fe28  1  0.99895128  0.99789035  0.66515072  1
  Fe  Fe29  1  0.16557484  0.16214224  0.83294027  1
  Fe  Fe30  1  0.16546826  0.50225718  0.49894223  1
  Cr  Cr31  1  0.99697909  0.33099837  0.66490523  1
  Cr  Cr32  1  0.16625444  0.50141129  0.83170921  1
  Fe  Fe33  1  0.16794133  0.83052563  0.49961227  1
  Fe  Fe34  1  0.99876591  0.66666745  0.66389130  1
  Fe  Fe35  1  0.16716833  0.83337992  0.83240939  1
  Ni  Ni36  1  0.50026718  0.16382564  0.49768046  1
  Fe  Fe37  1  0.33493413  0.99726516  0.66568637  1
  Fe  Fe38  1  0.50088848  0.16288942  0.83139077  1
  Cr  Cr39  1  0.49609179  0.49860926  0.49925631  1
  Cr  Cr40  1  0.33261510  0.32902856  0.66631051  1
  Cr  Cr41  1  0.49800179  0.49935076  0.83268962  1
  Fe  Fe42  1  0.49737701  0.83538901  0.49795669  1
  Fe  Fe43  1  0.33098323  0.66871700  0.66503680  1
  Fe  Fe44  1  0.49699907  0.83385037  0.83398737  1
  Fe  Fe45  1  0.82906293  0.16376564  0.49962161  1
  Fe  Fe46  1  0.66478566  0.00165367  0.66510549  1
  Fe  Fe47  1  0.83138526  0.16634992  0.83200252  1
  Fe  Fe48  1  0.83240843  0.50012679  0.49999517  1
  Ni  Ni49  1  0.66629857  0.33107088  0.66642697  1
  Ni  Ni50  1  0.83370364  0.50054948  0.83158733  1
  Fe  Fe51  1  0.83291000  0.83371013  0.49944600  1
  Cr  Cr52  1  0.66424265  0.66718104  0.66607286  1
  Cr  Cr53  1  0.83363555  0.83479126  0.83510328  1
" 