7382,Ni9Fe26Cr64_4,-213.189506816413, 183.450291930006,Ni9Fe26Cr64,"# generated using pymatgen
 data_Cr35Fe14Ni5
_symmetry_space_group_name_H-M   'P 1'
_cell_length_a   7.54692114
_cell_length_b   7.54692114
_cell_length_c   10.67295822
_cell_angle_alpha   90.00000000
_cell_angle_beta   90.00000000
_cell_angle_gamma   90.00000000
_symmetry_Int_Tables_number   1
_chemical_formula_structural   Cr35Fe14Ni5
_chemical_formula_sum   'Cr35 Fe14 Ni5'
_cell_volume   607.88920742
_cell_formula_units_Z   1
loop_
 _symmetry_equiv_pos_site_id
 _symmetry_equiv_pos_as_xyz
  1  'x, y, z'
loop_
 _atom_site_type_symbol
 _atom_site_label
 _atom_site_symmetry_multiplicity
 _atom_site_fract_x
 _atom_site_fract_y
 _atom_site_fract_z
 _atom_site_occupancy
  Cr  Cr0  1  0.99316244  0.99329026  0.99395188  1
  Cr  Cr1  1  0.16205044  0.16283974  0.16028415  1
  Cr  Cr2  1  0.99258754  0.99351471  0.32826866  1
  Cr  Cr3  1  -0.00494995  0.32911950  -0.00344943  1
  Fe  Fe4  1  0.16278999  0.49609128  0.16184405  1
  Cr  Cr5  1  0.99281085  0.32915924  0.32702563  1
  Fe  Fe6  1  -0.00495217  0.66194986  0.99413272  1
  Cr  Cr7  1  0.16181241  0.82714726  0.16302793  1
  Fe  Fe8  1  -0.00344534  0.66228021  0.32860529  1
  Cr  Cr9  1  0.32871592  0.99375748  0.99262234  1
  Cr  Cr10  1  0.49420154  0.16166248  0.16257998  1
  Fe  Fe11  1  0.32927385  0.99254113  0.32979608  1
  Fe  Fe12  1  0.32851651  0.32826245  -0.00483021  1
  Fe  Fe13  1  0.49369005  0.49572284  0.16223553  1
  Cr  Cr14  1  0.32970150  0.33134894  0.32687479  1
  Cr  Cr15  1  0.32653388  0.65969236  -0.00464957  1
  Cr  Cr16  1  0.49603341  0.82672459  0.16374879  1
  Ni  Ni17  1  0.32757613  0.66159609  0.32757989  1
  Cr  Cr18  1  0.66224957  -0.00440425  -0.00491252  1
  Fe  Fe19  1  0.82670894  0.16070787  0.16271640  1
  Ni  Ni20  1  0.66090112  -0.00420934  0.32737728  1
  Cr  Cr21  1  0.66023012  0.32693591  -0.00472290  1
  Cr  Cr22  1  0.82744599  0.49597445  0.16183944  1
  Fe  Fe23  1  0.66052298  0.32708373  0.32760202  1
  Fe  Fe24  1  0.66192170  0.66099612  -0.00487478  1
  Cr  Cr25  1  0.82627650  0.82681537  0.16100114  1
  Fe  Fe26  1  0.66010110  0.66177735  0.32758694  1
  Cr  Cr27  1  0.16335743  0.15802613  0.49685559  1
  Fe  Fe28  1  -0.00157820  0.99298800  0.66138802  1
  Cr  Cr29  1  0.16369726  0.15950266  0.82698249  1
  Cr  Cr30  1  0.16108638  0.49571031  0.49310699  1
  Cr  Cr31  1  0.99344019  0.32800132  0.66055141  1
  Cr  Cr32  1  0.16135039  0.49374209  0.83036754  1
  Ni  Ni33  1  0.16330734  0.82984695  0.49436199  1
  Cr  Cr34  1  -0.00353284  0.66365439  0.66110761  1
  Ni  Ni35  1  0.16151707  0.83022573  0.82678714  1
  Fe  Fe36  1  0.49429982  0.15912668  0.49375835  1
  Ni  Ni37  1  0.32711245  0.99329291  0.66080029  1
  Fe  Fe38  1  0.49294468  0.16047111  0.82768076  1
  Cr  Cr39  1  0.49688325  0.49551795  0.49365870  1
  Cr  Cr40  1  0.32985114  0.32674703  0.66265545  1
  Cr  Cr41  1  0.49626968  0.49465047  0.82902777  1
  Cr  Cr42  1  0.49319414  0.82885033  0.49260136  1
  Cr  Cr43  1  0.32642172  0.66450280  0.66075892  1
  Cr  Cr44  1  0.49475268  0.82816982  0.82777395  1
  Cr  Cr45  1  0.82769033  0.16171940  0.49319469  1
  Cr  Cr46  1  0.65998914  -0.00410757  0.66235979  1
  Cr  Cr47  1  0.82921064  0.16102600  0.82801335  1
  Cr  Cr48  1  0.82615160  0.49581825  0.49547572  1
  Cr  Cr49  1  0.66083727  0.32703705  0.66037058  1
  Cr  Cr50  1  0.82650051  0.49726527  0.82680586  1
  Cr  Cr51  1  0.82788104  0.82659161  0.49453324  1
  Fe  Fe52  1  0.66084495  0.66165371  0.66141250  1
  Cr  Cr53  1  0.82829596  0.82583498  0.82859147  1
" 