7351,Ni9Fe57Cr33_8,-222.320879572793, 168.019138200394,Ni9Fe57Cr33,"# generated using pymatgen
 data_Cr19(Fe6Ni)5
_symmetry_space_group_name_H-M   'P 1'
_cell_length_a   7.50050137
_cell_length_b   7.50050137
_cell_length_c   10.60731076
_cell_angle_alpha   90.00000000
_cell_angle_beta   90.00000000
_cell_angle_gamma   90.00000000
_symmetry_Int_Tables_number   1
_chemical_formula_structural   Cr19(Fe6Ni)5
_chemical_formula_sum   'Cr19 Fe30 Ni5'
_cell_volume   596.74100468
_cell_formula_units_Z   1
loop_
 _symmetry_equiv_pos_site_id
 _symmetry_equiv_pos_as_xyz
  1  'x, y, z'
loop_
 _atom_site_type_symbol
 _atom_site_label
 _atom_site_symmetry_multiplicity
 _atom_site_fract_x
 _atom_site_fract_y
 _atom_site_fract_z
 _atom_site_occupancy
  Fe  Fe0  1  -0.00206621  0.99609996  -0.00090001  1
  Fe  Fe1  1  0.16345036  0.16358771  0.16370818  1
  Cr  Cr2  1  0.99715242  0.99563072  0.33021184  1
  Cr  Cr3  1  -0.00183523  0.33310037  -0.00101957  1
  Fe  Fe4  1  0.16483460  0.50042636  0.16480180  1
  Cr  Cr5  1  -0.00183668  0.33177409  0.32700903  1
  Ni  Ni6  1  -0.00076037  0.66774321  0.99723831  1
  Fe  Fe7  1  0.16268531  0.82926652  0.16321871  1
  Fe  Fe8  1  -0.00081813  0.66519893  0.33051548  1
  Fe  Fe9  1  0.32899621  0.99630042  0.99623737  1
  Cr  Cr10  1  0.49872301  0.16428731  0.16494692  1
  Cr  Cr11  1  0.32971568  0.99686334  0.33271924  1
  Cr  Cr12  1  0.32925524  0.33105441  0.99760223  1
  Cr  Cr13  1  0.49635870  0.50017266  0.16854002  1
  Fe  Fe14  1  0.33173931  0.33270041  0.33234864  1
  Fe  Fe15  1  0.32807441  0.66554017  0.99743112  1
  Cr  Cr16  1  0.49561049  0.82874167  0.16121051  1
  Ni  Ni17  1  0.32814845  0.66217983  0.33085896  1
  Fe  Fe18  1  0.66649297  0.99592080  0.99752169  1
  Ni  Ni19  1  0.83347044  0.16246682  0.16389439  1
  Cr  Cr20  1  0.66638457  -0.00100882  0.33081102  1
  Cr  Cr21  1  0.66591627  0.32959988  -0.00185442  1
  Cr  Cr22  1  0.83134054  0.49796237  0.16451260  1
  Ni  Ni23  1  0.66310180  0.33193837  0.33168029  1
  Fe  Fe24  1  0.66688866  0.66625292  0.99641069  1
  Fe  Fe25  1  0.83224977  0.83142453  0.16245599  1
  Fe  Fe26  1  0.66436672  0.66344545  0.33181086  1
  Fe  Fe27  1  0.16542044  0.16586976  0.49897642  1
  Fe  Fe28  1  -0.00140838  0.99679055  0.66417476  1
  Fe  Fe29  1  0.16524917  0.16400675  0.83046985  1
  Fe  Fe30  1  0.16588075  0.49820165  0.49715978  1
  Fe  Fe31  1  -0.00074553  0.33169292  0.66515653  1
  Fe  Fe32  1  0.16172231  0.49874207  0.83102799  1
  Fe  Fe33  1  0.16178285  0.82911972  0.49742898  1
  Fe  Fe34  1  0.99631197  0.66488003  0.66594355  1
  Fe  Fe35  1  0.16264022  0.83079259  0.83283319  1
  Fe  Fe36  1  0.49771419  0.16925206  0.49772576  1
  Cr  Cr37  1  0.33032979  -0.00137596  0.66476086  1
  Fe  Fe38  1  0.49714765  0.16384416  0.83084719  1
  Fe  Fe39  1  0.49755230  0.49517511  0.49668158  1
  Fe  Fe40  1  0.33169567  0.33040970  0.66416338  1
  Cr  Cr41  1  0.49884164  0.49952188  0.83040921  1
  Cr  Cr42  1  0.49703166  0.82802077  0.49623810  1
  Cr  Cr43  1  0.32882756  0.66395780  0.66515121  1
  Fe  Fe44  1  0.49848672  0.83214744  0.83313498  1
  Cr  Cr45  1  0.83222512  0.16530090  0.49862810  1
  Cr  Cr46  1  0.66414663  0.99761171  0.66425582  1
  Cr  Cr47  1  0.83330029  0.16493323  0.83040739  1
  Cr  Cr48  1  0.82990738  0.49839114  0.49978157  1
  Ni  Ni49  1  0.66431170  0.33200896  0.66459928  1
  Fe  Fe50  1  0.83254809  0.50034288  0.82980682  1
  Fe  Fe51  1  0.83308938  0.82924655  0.49857800  1
  Fe  Fe52  1  0.66586239  0.66339135  0.66516271  1
  Fe  Fe53  1  0.83206326  0.82862838  0.83214966  1
" 