8650,Ni9Fe26Cr64_0,-213.466736584522, 181.469501344165,Ni9Fe26Cr64,"# generated using pymatgen
 data_Cr35Fe14Ni5
_symmetry_space_group_name_H-M   'P 1'
_cell_length_a   7.55426827
_cell_length_b   7.55426827
_cell_length_c   10.68334864
_cell_angle_alpha   90.00000000
_cell_angle_beta   90.00000000
_cell_angle_gamma   90.00000000
_symmetry_Int_Tables_number   1
_chemical_formula_structural   Cr35Fe14Ni5
_chemical_formula_sum   'Cr35 Fe14 Ni5'
_cell_volume   609.66632598
_cell_formula_units_Z   1
loop_
 _symmetry_equiv_pos_site_id
 _symmetry_equiv_pos_as_xyz
  1  'x, y, z'
loop_
 _atom_site_type_symbol
 _atom_site_label
 _atom_site_symmetry_multiplicity
 _atom_site_fract_x
 _atom_site_fract_y
 _atom_site_fract_z
 _atom_site_occupancy
  Cr  Cr0  1  -0.00479817  -0.00576836  -0.00547195  1
  Ni  Ni1  1  0.16167456  0.15908230  0.16126478  1
  Cr  Cr2  1  -0.00354638  -0.00516079  0.32926775  1
  Cr  Cr3  1  0.99389971  0.32843050  -0.00471716  1
  Cr  Cr4  1  0.16110472  0.49635170  0.15964128  1
  Cr  Cr5  1  -0.00493896  0.32550128  0.32441993  1
  Ni  Ni6  1  0.99031011  0.66117637  0.99108305  1
  Cr  Cr7  1  0.16032579  0.82624104  0.16134823  1
  Cr  Cr8  1  0.99398371  0.66289649  0.32869825  1
  Cr  Cr9  1  0.32853637  0.99361478  -0.00467908  1
  Cr  Cr10  1  0.49620604  0.15844286  0.16012083  1
  Cr  Cr11  1  0.32690336  0.99408675  0.32751134  1
  Cr  Cr12  1  0.32651492  0.32592769  -0.00520875  1
  Cr  Cr13  1  0.49454109  0.49651930  0.16216902  1
  Cr  Cr14  1  0.32716727  0.32523640  0.32744751  1
  Cr  Cr15  1  0.32804024  0.66305245  0.99405573  1
  Fe  Fe16  1  0.49594285  0.82826468  0.16011334  1
  Cr  Cr17  1  0.32903287  0.66386870  0.32973073  1
  Fe  Fe18  1  0.66117688  0.99039314  0.99251728  1
  Cr  Cr19  1  0.82598728  0.15802240  0.16203865  1
  Fe  Fe20  1  0.65952747  0.99260035  0.32923419  1
  Cr  Cr21  1  0.66215772  0.32867568  0.99387135  1
  Cr  Cr22  1  0.82713355  0.49690190  0.16051667  1
  Cr  Cr23  1  0.66022653  0.32734751  0.32873399  1
  Fe  Fe24  1  0.66245858  0.66326476  0.99222577  1
  Cr  Cr25  1  0.82534513  0.82776803  0.16016971  1
  Cr  Cr26  1  0.65970456  0.66232237  0.33065254  1
  Ni  Ni27  1  0.16180998  0.15933175  0.49691923  1
  Ni  Ni28  1  -0.00524602  -0.00532429  0.65849724  1
  Cr  Cr29  1  0.16013885  0.16173216  0.82443512  1
  Cr  Cr30  1  0.16216006  0.49399547  0.49551502  1
  Fe  Fe31  1  -0.00456701  0.32607081  0.65994137  1
  Fe  Fe32  1  0.15968913  0.49492421  0.82763720  1
  Fe  Fe33  1  0.15910930  0.83029311  0.49566063  1
  Cr  Cr34  1  0.99233878  0.66282202  0.66207060  1
  Cr  Cr35  1  0.16037646  0.82674536  0.82647827  1
  Fe  Fe36  1  0.49216034  0.16096131  0.49462200  1
  Cr  Cr37  1  0.32683864  0.99358173  0.66003340  1
  Cr  Cr38  1  0.49442126  0.15903401  0.82683411  1
  Fe  Fe39  1  0.49284084  0.49248255  0.49497991  1
  Fe  Fe40  1  0.32597539  0.32649053  0.65930520  1
  Cr  Cr41  1  0.49260271  0.49479497  0.82642852  1
  Fe  Fe42  1  0.49440257  0.82957854  0.49492546  1
  Cr  Cr43  1  0.32903606  0.66227969  0.65957506  1
  Ni  Ni44  1  0.49783205  0.82550745  0.82997576  1
  Cr  Cr45  1  0.82798642  0.15848919  0.49413815  1
  Cr  Cr46  1  0.66113327  0.99228556  0.66103786  1
  Cr  Cr47  1  0.82828602  0.15918666  0.82594774  1
  Cr  Cr48  1  0.82794283  0.49440331  0.49343681  1
  Cr  Cr49  1  0.66045827  0.32897743  0.65958299  1
  Fe  Fe50  1  0.82881325  0.49653184  0.82840394  1
  Fe  Fe51  1  0.82918370  0.82936676  0.49521211  1
  Cr  Cr52  1  0.66128770  0.66126292  0.66136578  1
  Fe  Fe53  1  0.82663266  0.82739596  0.82854684  1
" 