3637,Ni9Fe87Cr2_19,-227.082156240992, 151.780859989872,Ni9Fe87Cr2,"# generated using pymatgen
 data_Cr2Fe47Ni5
_symmetry_space_group_name_H-M   'P 1'
_cell_length_a   7.41832553
_cell_length_b   7.41832553
_cell_length_c   10.49109658
_cell_angle_alpha   90.00000000
_cell_angle_beta   90.00000000
_cell_angle_gamma   90.00000000
_symmetry_Int_Tables_number   1
_chemical_formula_structural   Cr2Fe47Ni5
_chemical_formula_sum   'Cr2 Fe47 Ni5'
_cell_volume   577.34134507
_cell_formula_units_Z   1
loop_
 _symmetry_equiv_pos_site_id
 _symmetry_equiv_pos_as_xyz
  1  'x, y, z'
loop_
 _atom_site_type_symbol
 _atom_site_label
 _atom_site_symmetry_multiplicity
 _atom_site_fract_x
 _atom_site_fract_y
 _atom_site_fract_z
 _atom_site_occupancy
  Ni  Ni0  1  1.00287019  1.00286975  1.00305385  1
  Fe  Fe1  1  0.16955549  0.16965863  0.16904871  1
  Fe  Fe2  1  1.00328328  0.00506444  0.33589247  1
  Fe  Fe3  1  0.00453854  0.33489590  0.00399340  1
  Fe  Fe4  1  0.17088407  0.50247074  0.16917951  1
  Fe  Fe5  1  0.00328512  0.33499263  0.33662031  1
  Fe  Fe6  1  0.00381740  0.67170011  0.00420846  1
  Fe  Fe7  1  0.17055732  0.83772262  0.16885041  1
  Cr  Cr8  1  0.00328500  0.67058259  0.33662304  1
  Fe  Fe9  1  0.33576054  0.00364718  1.00307015  1
  Fe  Fe10  1  0.50335868  0.17009843  0.17060093  1
  Fe  Fe11  1  0.33702353  1.00304630  0.33726496  1
  Fe  Fe12  1  0.33576313  0.33579032  1.00296091  1
  Fe  Fe13  1  0.50331630  0.50331742  0.16979424  1
  Fe  Fe14  1  0.33658774  0.33656730  0.33682866  1
  Fe  Fe15  1  0.33608973  0.67041546  0.00343560  1
  Fe  Fe16  1  0.50320582  0.83643581  0.17063201  1
  Fe  Fe17  1  0.33860385  0.67023599  0.33682649  1
  Fe  Fe18  1  0.67083565  1.00292544  1.00304022  1
  Fe  Fe19  1  0.83693732  0.16976944  0.16973854  1
  Fe  Fe20  1  0.66954390  1.00304399  0.33726601  1
  Fe  Fe21  1  0.66955375  0.33522635  0.00432400  1
  Fe  Fe22  1  0.83565171  0.50231796  0.16897187  1
  Fe  Fe23  1  0.66997744  0.33656809  0.33683000  1
  Fe  Fe24  1  0.66994165  0.67170152  0.00392461  1
  Fe  Fe25  1  0.83608815  0.83776287  0.16809453  1
  Fe  Fe26  1  0.66796695  0.67023746  0.33682618  1
  Fe  Fe27  1  0.17105949  0.16937501  0.50382400  1
  Fe  Fe28  1  1.00325389  1.00325488  0.67125065  1
  Ni  Ni29  1  0.17084048  0.16998444  0.83694408  1
  Fe  Fe30  1  0.17195023  0.50247173  0.50413118  1
  Fe  Fe31  1  0.00453584  0.33562246  0.66924178  1
  Fe  Fe32  1  0.17123381  0.50328267  0.83653990  1
  Fe  Fe33  1  0.17205936  0.83800579  0.50402222  1
  Fe  Fe34  1  0.00381323  0.67097706  0.66902680  1
  Fe  Fe35  1  0.16877620  0.83724168  0.83697942  1
  Ni  Ni36  1  0.50268438  0.16920193  0.50283498  1
  Fe  Fe37  1  0.33698462  0.00364737  0.66951249  1
  Fe  Fe38  1  0.50352560  0.16976956  0.83604365  1
  Fe  Fe39  1  0.50331596  0.50331355  0.50328600  1
  Fe  Fe40  1  0.33654622  0.33607154  0.67006131  1
  Fe  Fe41  1  0.50150794  0.50328527  0.83677098  1
  Ni  Ni42  1  0.50341310  0.83694991  0.50242006  1
  Fe  Fe43  1  0.33687374  0.67013287  0.66958582  1
  Fe  Fe44  1  0.50351795  0.83679793  0.83604379  1
  Fe  Fe45  1  0.83542845  0.16948508  0.50313365  1
  Fe  Fe46  1  0.66961397  1.00292508  0.66954126  1
  Fe  Fe47  1  0.83756067  0.16732328  0.83697882  1
  Fe  Fe48  1  0.83458584  0.50231924  0.50433803  1
  Fe  Fe49  1  0.66877410  0.33551385  0.66870186  1
  Cr  Cr50  1  0.83703506  0.50456561  0.83739165  1
  Fe  Fe51  1  0.83458870  0.83804771  0.50477982  1
  Fe  Fe52  1  0.66916479  0.67141395  0.66910359  1
  Ni  Ni53  1  0.83640473  0.83728635  0.83694272  1
" 