6203,Ni9Fe87Cr2_9,-226.97108570234, 150.288289152222,Ni9Fe87Cr2,"# generated using pymatgen
 data_Cr2Fe47Ni5
_symmetry_space_group_name_H-M   'P 1'
_cell_length_a   7.41777955
_cell_length_b   7.41777955
_cell_length_c   10.49032444
_cell_angle_alpha   90.00000000
_cell_angle_beta   90.00000000
_cell_angle_gamma   90.00000000
_symmetry_Int_Tables_number   1
_chemical_formula_structural   Cr2Fe47Ni5
_chemical_formula_sum   'Cr2 Fe47 Ni5'
_cell_volume   577.21387897
_cell_formula_units_Z   1
loop_
 _symmetry_equiv_pos_site_id
 _symmetry_equiv_pos_as_xyz
  1  'x, y, z'
loop_
 _atom_site_type_symbol
 _atom_site_label
 _atom_site_symmetry_multiplicity
 _atom_site_fract_x
 _atom_site_fract_y
 _atom_site_fract_z
 _atom_site_occupancy
  Fe  Fe0  1  0.00359044  1.00297847  1.00257550  1
  Fe  Fe1  1  0.17028534  0.17032566  0.17036037  1
  Fe  Fe2  1  0.00352035  1.00302061  0.33715851  1
  Fe  Fe3  1  1.00317372  0.33672604  1.00284805  1
  Fe  Fe4  1  0.16937843  0.50205624  0.16944021  1
  Fe  Fe5  1  0.00439177  0.33664197  0.33627400  1
  Fe  Fe6  1  0.00369681  0.67025912  1.00315078  1
  Fe  Fe7  1  0.16907393  0.83757366  0.16845365  1
  Fe  Fe8  1  1.00250257  0.67030078  0.33565609  1
  Fe  Fe9  1  0.33645359  1.00294657  1.00307947  1
  Fe  Fe10  1  0.50294445  0.17025529  0.17021359  1
  Fe  Fe11  1  0.33726616  0.00499368  0.33658498  1
  Fe  Fe12  1  0.33679750  0.33668519  0.00404088  1
  Fe  Fe13  1  0.50419776  0.50246564  0.16970584  1
  Ni  Ni14  1  0.33634180  0.33549910  0.33684706  1
  Fe  Fe15  1  0.33630686  0.67033161  1.00313204  1
  Fe  Fe16  1  0.50457435  0.83723964  0.16940176  1
  Cr  Cr17  1  0.33798032  0.66858039  0.33672998  1
  Fe  Fe18  1  0.66991869  0.00346899  0.00339080  1
  Fe  Fe19  1  0.83673081  0.16994583  0.16987553  1
  Fe  Fe20  1  0.66917707  1.00311041  0.33661408  1
  Fe  Fe21  1  0.66999169  0.33657974  1.00324235  1
  Fe  Fe22  1  0.83638975  0.50368811  0.17044083  1
  Fe  Fe23  1  0.66829668  0.33656996  0.33573111  1
  Fe  Fe24  1  0.66995957  0.66991449  0.00396705  1
  Fe  Fe25  1  0.83632055  0.83633289  0.17038742  1
  Ni  Ni26  1  0.67038190  0.67138234  0.33522440  1
  Fe  Fe27  1  0.16951435  0.17054994  0.50348999  1
  Ni  Ni28  1  1.00281017  0.00418597  0.67047335  1
  Fe  Fe29  1  0.16945677  0.16943658  0.83612051  1
  Fe  Fe30  1  0.17090420  0.50178672  0.50410288  1
  Ni  Ni31  1  0.00439365  0.33452005  0.67136407  1
  Fe  Fe32  1  0.16976314  0.50359659  0.83642675  1
  Fe  Fe33  1  0.16864217  0.83761495  0.50505386  1
  Fe  Fe34  1  0.00454299  0.67110681  0.67114784  1
  Ni  Ni35  1  0.17003071  0.83698886  0.83669785  1
  Fe  Fe36  1  0.50317696  0.17048423  0.50295016  1
  Fe  Fe37  1  0.33529464  0.00348633  0.67029923  1
  Fe  Fe38  1  0.50277248  0.16944394  0.83680031  1
  Fe  Fe39  1  0.50248087  0.50254134  0.50356461  1
  Fe  Fe40  1  0.33565178  0.33617295  0.66930925  1
  Fe  Fe41  1  0.50280692  0.50393646  0.83669106  1
  Fe  Fe42  1  0.50481042  0.83693511  0.50383286  1
  Fe  Fe43  1  0.33522329  0.67030242  0.67014531  1
  Fe  Fe44  1  0.50277687  0.83658256  0.83672394  1
  Fe  Fe45  1  0.83726932  0.16822076  0.50400679  1
  Fe  Fe46  1  0.67110036  0.00400936  0.66995793  1
  Fe  Fe47  1  0.83773314  0.16947067  0.83608820  1
  Cr  Cr48  1  0.83673320  0.50331811  0.50258600  1
  Fe  Fe49  1  0.67029694  0.33518907  0.67098502  1
  Fe  Fe50  1  0.83739453  0.50359787  0.83622775  1
  Fe  Fe51  1  0.83651547  0.83832285  0.50314787  1
  Fe  Fe52  1  0.67019453  0.67076502  0.67018797  1
  Fe  Fe53  1  0.83739825  0.83689300  0.83642329  1
" 