2323,Ni9Fe62Cr27_12,-223.977564051403, 168.562266585611,Ni9Fe62Cr27,"# generated using pymatgen
 data_Cr16Fe33Ni5
_symmetry_space_group_name_H-M   'P 1'
_cell_length_a   7.49089250
_cell_length_b   7.49089250
_cell_length_c   10.59372177
_cell_angle_alpha   90.00000000
_cell_angle_beta   90.00000000
_cell_angle_gamma   90.00000000
_symmetry_Int_Tables_number   1
_chemical_formula_structural   Cr16Fe33Ni5
_chemical_formula_sum   'Cr16 Fe33 Ni5'
_cell_volume   594.45049300
_cell_formula_units_Z   1
loop_
 _symmetry_equiv_pos_site_id
 _symmetry_equiv_pos_as_xyz
  1  'x, y, z'
loop_
 _atom_site_type_symbol
 _atom_site_label
 _atom_site_symmetry_multiplicity
 _atom_site_fract_x
 _atom_site_fract_y
 _atom_site_fract_z
 _atom_site_occupancy
  Fe  Fe0  1  0.99828612  0.99798145  -0.00052829  1
  Fe  Fe1  1  0.16496450  0.16886533  0.16424767  1
  Cr  Cr2  1  0.99653990  0.00001766  0.32932428  1
  Fe  Fe3  1  -0.00137205  0.33192070  0.00129076  1
  Ni  Ni4  1  0.16508181  0.49784935  0.16693035  1
  Ni  Ni5  1  -0.00068742  0.33223445  0.33015785  1
  Fe  Fe6  1  -0.00084847  0.66482750  -0.00062941  1
  Cr  Cr7  1  0.16377505  0.83103336  0.16531682  1
  Fe  Fe8  1  0.00016642  0.66388129  0.33273907  1
  Fe  Fe9  1  0.33039882  0.99686995  0.99797415  1
  Cr  Cr10  1  0.49682900  0.16647276  0.16728779  1
  Fe  Fe11  1  0.32971846  0.99778088  0.33429530  1
  Fe  Fe12  1  0.33163224  0.33440303  0.00087571  1
  Ni  Ni13  1  0.49807427  0.49700451  0.16627023  1
  Fe  Fe14  1  0.32941388  0.33385447  0.33210904  1
  Fe  Fe15  1  0.33081603  0.66330242  0.00005154  1
  Cr  Cr16  1  0.49888903  0.83121349  0.16495028  1
  Ni  Ni17  1  0.33287327  0.66221258  0.33018503  1
  Fe  Fe18  1  0.66677251  -0.00108096  -0.00064033  1
  Fe  Fe19  1  0.83252138  0.16821246  0.16348515  1
  Cr  Cr20  1  0.66682193  0.99728357  0.33048706  1
  Fe  Fe21  1  0.66522569  0.33341599  -0.00062755  1
  Cr  Cr22  1  0.83267327  0.50062586  0.16765727  1
  Fe  Fe23  1  0.66542130  0.33364237  0.33313307  1
  Fe  Fe24  1  0.66400529  0.66332642  -0.00083213  1
  Fe  Fe25  1  0.83116442  0.83021447  0.16263259  1
  Fe  Fe26  1  0.66494585  0.66312871  0.33236076  1
  Fe  Fe27  1  0.16385394  0.16608726  0.49625046  1
  Fe  Fe28  1  -0.00031604  0.99657827  0.66280232  1
  Cr  Cr29  1  0.16620721  0.16314620  0.83230288  1
  Fe  Fe30  1  0.16412434  0.49975829  0.49469542  1
  Cr  Cr31  1  0.99658261  0.33178777  0.66537691  1
  Cr  Cr32  1  0.16262268  0.49979863  0.83365328  1
  Fe  Fe33  1  0.16492628  0.82883202  0.49633317  1
  Fe  Fe34  1  0.99801253  0.66571404  0.66321683  1
  Ni  Ni35  1  0.16294205  0.83109376  0.83154306  1
  Fe  Fe36  1  0.49855487  0.16597141  0.49575368  1
  Cr  Cr37  1  0.33182927  0.99520635  0.66221152  1
  Cr  Cr38  1  0.49894746  0.16654348  0.83298823  1
  Fe  Fe39  1  0.49881989  0.50008829  0.49511869  1
  Cr  Cr40  1  0.33192796  0.33527699  0.66256617  1
  Fe  Fe41  1  0.49930862  0.50131777  0.83547461  1
  Fe  Fe42  1  0.49817698  0.82851796  0.49536006  1
  Cr  Cr43  1  0.33233852  0.66569187  0.66772708  1
  Fe  Fe44  1  0.49629153  0.83110511  0.83522980  1
  Fe  Fe45  1  0.83279122  0.16708944  0.49662722  1
  Cr  Cr46  1  0.66688598  0.99760737  0.66412060  1
  Fe  Fe47  1  0.83400704  0.16445176  0.83485987  1
  Fe  Fe48  1  0.83302635  0.49885262  0.49575418  1
  Cr  Cr49  1  0.66682300  0.33336790  0.66592484  1
  Fe  Fe50  1  0.83088889  0.49798752  0.83450860  1
  Fe  Fe51  1  0.83265762  0.82912936  0.49816601  1
  Fe  Fe52  1  0.66524105  0.66370457  0.66383554  1
  Cr  Cr53  1  0.83247971  0.82885397  0.83114893  1
" 