4351,Ni9Fe26Cr64_6,-214.150943132213, 189.558469844384,Ni9Fe26Cr64,"# generated using pymatgen
 data_Cr35Fe14Ni5
_symmetry_space_group_name_H-M   'P 1'
_cell_length_a   7.54528387
_cell_length_b   7.54528387
_cell_length_c   10.67064278
_cell_angle_alpha   90.00000000
_cell_angle_beta   90.00000000
_cell_angle_gamma   90.00000000
_symmetry_Int_Tables_number   1
_chemical_formula_structural   Cr35Fe14Ni5
_chemical_formula_sum   'Cr35 Fe14 Ni5'
_cell_volume   607.49365741
_cell_formula_units_Z   1
loop_
 _symmetry_equiv_pos_site_id
 _symmetry_equiv_pos_as_xyz
  1  'x, y, z'
loop_
 _atom_site_type_symbol
 _atom_site_label
 _atom_site_symmetry_multiplicity
 _atom_site_fract_x
 _atom_site_fract_y
 _atom_site_fract_z
 _atom_site_occupancy
  Fe  Fe0  1  0.99394438  0.99476944  -0.00460012  1
  Cr  Cr1  1  0.16177330  0.16137552  0.16147786  1
  Ni  Ni2  1  0.99379412  -0.00409715  0.32949714  1
  Cr  Cr3  1  0.99291182  0.32806097  -0.00456023  1
  Cr  Cr4  1  0.16310692  0.49404127  0.16337857  1
  Cr  Cr5  1  0.99407626  0.32831613  0.33002008  1
  Fe  Fe6  1  0.99475897  0.66096797  -0.00448690  1
  Cr  Cr7  1  0.15869164  0.82888421  0.16117732  1
  Cr  Cr8  1  0.99457665  0.66055612  0.33049481  1
  Cr  Cr9  1  0.32877308  0.99426625  0.99426989  1
  Fe  Fe10  1  0.49553247  0.16078169  0.16309248  1
  Cr  Cr11  1  0.32972264  0.99414017  0.32892509  1
  Cr  Cr12  1  0.32879525  0.32702208  0.99476407  1
  Cr  Cr13  1  0.49424100  0.49253975  0.16183367  1
  Fe  Fe14  1  0.32904309  0.32622911  0.32918039  1
  Cr  Cr15  1  0.32898266  0.66285862  0.99296587  1
  Cr  Cr16  1  0.49665298  0.82803791  0.16361811  1
  Cr  Cr17  1  0.32756591  0.66339007  0.33145505  1
  Cr  Cr18  1  0.66041881  -0.00434047  -0.00436320  1
  Cr  Cr19  1  0.82879402  0.15858923  0.16341983  1
  Ni  Ni20  1  0.66150257  -0.00324882  0.33060951  1
  Cr  Cr21  1  0.66295011  0.32780053  0.99364973  1
  Fe  Fe22  1  0.82915597  0.49511931  0.16207100  1
  Cr  Cr23  1  0.66368841  0.32644239  0.32858533  1
  Cr  Cr24  1  0.66190816  0.66079069  -0.00450063  1
  Cr  Cr25  1  0.82907210  0.82900934  0.16150120  1
  Cr  Cr26  1  0.66215601  0.66281060  0.32761663  1
  Cr  Cr27  1  0.16154225  0.16115687  0.49376014  1
  Fe  Fe28  1  -0.00442694  0.99369318  0.65896647  1
  Cr  Cr29  1  0.15994170  0.15981784  0.82932180  1
  Fe  Fe30  1  0.16067573  0.49588766  0.49578461  1
  Cr  Cr31  1  0.99199040  0.32812832  0.65914814  1
  Cr  Cr32  1  0.16231004  0.49508149  0.82777728  1
  Fe  Fe33  1  0.16088346  0.82889542  0.49540104  1
  Fe  Fe34  1  0.99449917  0.66124765  0.65913263  1
  Cr  Cr35  1  0.15828804  0.82953871  0.82737739  1
  Fe  Fe36  1  0.49749960  0.15990434  0.49566990  1
  Fe  Fe37  1  0.32876907  0.99458466  0.65928531  1
  Cr  Cr38  1  0.49542909  0.16305193  0.82555322  1
  Cr  Cr39  1  0.49490055  0.49383357  0.49456850  1
  Cr  Cr40  1  0.32703014  0.32759267  0.66192385  1
  Ni  Ni41  1  0.49556296  0.49391643  0.82723206  1
  Ni  Ni42  1  0.49560112  0.83121448  0.49540432  1
  Cr  Cr43  1  0.32749576  0.66449351  0.66033326  1
  Cr  Cr44  1  0.49622077  0.82777349  0.82649944  1
  Fe  Fe45  1  0.82569663  0.16053344  0.49463858  1
  Fe  Fe46  1  0.66019639  -0.00422180  0.65860149  1
  Cr  Cr47  1  0.82862283  0.15907167  0.82455775  1
  Ni  Ni48  1  0.82799776  0.49420164  0.49538257  1
  Fe  Fe49  1  0.66121806  0.32876331  0.65974293  1
  Cr  Cr50  1  0.82686531  0.49595523  0.82787063  1
  Cr  Cr51  1  0.82743756  0.82972360  0.49433228  1
  Cr  Cr52  1  0.66138972  0.66172218  0.66158469  1
  Cr  Cr53  1  0.82981337  0.82936546  0.82909699  1
" 