2193,Ni9Fe26Cr64_14,-213.593333084723, 185.2800721295,Ni9Fe26Cr64,"# generated using pymatgen
 data_Cr35Fe14Ni5
_symmetry_space_group_name_H-M   'P 1'
_cell_length_a   7.54930268
_cell_length_b   7.54930268
_cell_length_c   10.67632624
_cell_angle_alpha   90.00000000
_cell_angle_beta   90.00000000
_cell_angle_gamma   90.00000000
_symmetry_Int_Tables_number   1
_chemical_formula_structural   Cr35Fe14Ni5
_chemical_formula_sum   'Cr35 Fe14 Ni5'
_cell_volume   608.46487594
_cell_formula_units_Z   1
loop_
 _symmetry_equiv_pos_site_id
 _symmetry_equiv_pos_as_xyz
  1  'x, y, z'
loop_
 _atom_site_type_symbol
 _atom_site_label
 _atom_site_symmetry_multiplicity
 _atom_site_fract_x
 _atom_site_fract_y
 _atom_site_fract_z
 _atom_site_occupancy
  Cr  Cr0  1  0.99257542  -0.00273338  -0.00325281  1
  Fe  Fe1  1  0.16054864  0.16319478  0.16258275  1
  Cr  Cr2  1  0.99428974  -0.00366393  0.32561853  1
  Fe  Fe3  1  0.99051816  0.32604200  -0.00387446  1
  Cr  Cr4  1  0.16027126  0.49397357  0.16128876  1
  Fe  Fe5  1  0.99312675  0.32588851  0.32629074  1
  Cr  Cr6  1  0.99138659  0.66300380  -0.00436144  1
  Cr  Cr7  1  0.16386369  0.82644135  0.16002303  1
  Cr  Cr8  1  0.99234330  0.66459628  0.33015256  1
  Cr  Cr9  1  0.32698798  -0.00134104  -0.00406926  1
  Fe  Fe10  1  0.49748738  0.16270822  0.16153224  1
  Fe  Fe11  1  0.32883227  0.99343406  0.32811006  1
  Cr  Cr12  1  0.32936598  0.32781293  0.99355688  1
  Cr  Cr13  1  0.49373559  0.49362366  0.16003236  1
  Fe  Fe14  1  0.32838431  0.32541822  0.32576958  1
  Fe  Fe15  1  0.32982327  0.66104849  0.99450614  1
  Cr  Cr16  1  0.49491922  0.83200908  0.16028755  1
  Cr  Cr17  1  0.33035577  0.66123083  0.32973962  1
  Ni  Ni18  1  0.66246548  -0.00126625  -0.00155973  1
  Ni  Ni19  1  0.82510881  0.16196095  0.16026735  1
  Fe  Fe20  1  0.66164332  -0.00486927  0.32560939  1
  Ni  Ni21  1  0.66047111  0.32584371  -0.00533333  1
  Cr  Cr22  1  0.82881719  0.49052229  0.16274970  1
  Fe  Fe23  1  0.66185234  0.32468292  0.32511169  1
  Cr  Cr24  1  0.66118570  0.65981185  -0.00347147  1
  Fe  Fe25  1  0.82654191  0.83076625  0.16124712  1
  Cr  Cr26  1  0.66115840  0.66158929  0.32724901  1
  Cr  Cr27  1  0.16175026  0.16180008  0.49108012  1
  Cr  Cr28  1  -0.00468252  0.99364123  0.66124164  1
  Cr  Cr29  1  0.15990999  0.16161538  0.82953656  1
  Cr  Cr30  1  0.15995397  0.49520919  0.49280427  1
  Cr  Cr31  1  -0.00408606  0.32597643  0.66170045  1
  Cr  Cr32  1  0.16071197  0.49616639  0.83068124  1
  Ni  Ni33  1  0.16375837  0.82784019  0.49483364  1
  Fe  Fe34  1  -0.00386548  0.66159157  0.66019355  1
  Cr  Cr35  1  0.16250962  0.82629252  0.82823412  1
  Cr  Cr36  1  0.49708086  0.15877712  0.49192156  1
  Cr  Cr37  1  0.32638989  -0.00459920  0.65822462  1
  Cr  Cr38  1  0.49817459  0.15938283  0.82726634  1
  Cr  Cr39  1  0.49576300  0.49143407  0.49289416  1
  Cr  Cr40  1  0.33024090  0.32758026  0.66248424  1
  Fe  Fe41  1  0.49678664  0.49388102  0.82968405  1
  Ni  Ni42  1  0.49370030  0.83002318  0.49338166  1
  Cr  Cr43  1  0.33136685  0.66059167  0.66136962  1
  Cr  Cr44  1  0.49479474  0.83030235  0.83079602  1
  Cr  Cr45  1  0.82487645  0.16217212  0.49651029  1
  Fe  Fe46  1  0.65869060  0.99299141  0.66067046  1
  Cr  Cr47  1  0.82436943  0.16120847  0.82691472  1
  Cr  Cr48  1  0.82870153  0.49138654  0.49413571  1
  Fe  Fe49  1  0.65979852  0.32767718  0.66184662  1
  Cr  Cr50  1  0.82821438  0.49198264  0.82698037  1
  Cr  Cr51  1  0.82643717  0.82955678  0.49604253  1
  Cr  Cr52  1  0.66054386  0.65958656  0.65996924  1
  Cr  Cr53  1  0.82586618  0.83001846  0.82861525  1
" 