3676,Ni9Fe57Cr33_3,-222.129938056564, 171.993496917311,Ni9Fe57Cr33,"# generated using pymatgen
 data_Cr19(Fe6Ni)5
_symmetry_space_group_name_H-M   'P 1'
_cell_length_a   7.49310091
_cell_length_b   7.49310091
_cell_length_c   10.59684493
_cell_angle_alpha   90.00000000
_cell_angle_beta   90.00000000
_cell_angle_gamma   90.00000000
_symmetry_Int_Tables_number   1
_chemical_formula_structural   Cr19(Fe6Ni)5
_chemical_formula_sum   'Cr19 Fe30 Ni5'
_cell_volume   594.97640327
_cell_formula_units_Z   1
loop_
 _symmetry_equiv_pos_site_id
 _symmetry_equiv_pos_as_xyz
  1  'x, y, z'
loop_
 _atom_site_type_symbol
 _atom_site_label
 _atom_site_symmetry_multiplicity
 _atom_site_fract_x
 _atom_site_fract_y
 _atom_site_fract_z
 _atom_site_occupancy
  Cr  Cr0  1  0.99741759  0.00132041  -0.00143213  1
  Fe  Fe1  1  0.16409940  0.16451817  0.16776427  1
  Fe  Fe2  1  -0.00151134  0.99825586  0.32797382  1
  Cr  Cr3  1  0.99542232  0.33136847  -0.00057197  1
  Cr  Cr4  1  0.16582129  0.49811934  0.16795455  1
  Fe  Fe5  1  0.99626459  0.32915597  0.32953959  1
  Fe  Fe6  1  -0.00097904  0.66620620  0.00046390  1
  Fe  Fe7  1  0.16468248  0.83235546  0.16640205  1
  Fe  Fe8  1  -0.00153659  0.66695753  0.32955630  1
  Cr  Cr9  1  0.33110510  0.99684380  0.00023122  1
  Fe  Fe10  1  0.49686755  0.16613658  0.16479444  1
  Ni  Ni11  1  0.33067353  -0.00070277  0.32988001  1
  Fe  Fe12  1  0.33365273  0.33431846  0.00136979  1
  Fe  Fe13  1  0.50016083  0.49682293  0.16351071  1
  Fe  Fe14  1  0.33531260  0.33120120  0.33070998  1
  Ni  Ni15  1  0.33475126  0.66453281  0.00086821  1
  Fe  Fe16  1  0.49795638  0.83034339  0.16370275  1
  Fe  Fe17  1  0.33122942  0.66704735  0.32999409  1
  Fe  Fe18  1  0.66587617  0.99738307  0.00139562  1
  Ni  Ni19  1  0.82901115  0.16457972  0.16627341  1
  Cr  Cr20  1  0.66422162  -0.00172768  0.32839759  1
  Fe  Fe21  1  0.66459789  0.33072065  0.00050981  1
  Fe  Fe22  1  0.83006747  0.49716692  0.16556194  1
  Fe  Fe23  1  0.66329236  0.32940151  0.32983109  1
  Ni  Ni24  1  0.66393289  0.66114614  -0.00072472  1
  Fe  Fe25  1  0.83159218  0.82979518  0.16299737  1
  Cr  Cr26  1  0.66237494  0.66319515  0.33067039  1
  Cr  Cr27  1  0.16645790  0.16666616  0.49571767  1
  Fe  Fe28  1  -0.00054755  -0.00163368  0.66687891  1
  Cr  Cr29  1  0.16723636  0.16704105  0.83206549  1
  Fe  Fe30  1  0.16585861  0.49919696  0.49476868  1
  Cr  Cr31  1  0.99665798  0.33096404  0.66523833  1
  Cr  Cr32  1  0.16620824  0.50023178  0.83398317  1
  Cr  Cr33  1  0.16374337  0.83247292  0.49801505  1
  Fe  Fe34  1  -0.00168756  0.66422090  0.66562569  1
  Fe  Fe35  1  0.16511705  0.83189297  0.83209024  1
  Fe  Fe36  1  0.49876018  0.16704445  0.49617817  1
  Fe  Fe37  1  0.33096592  0.00071428  0.66448533  1
  Cr  Cr38  1  0.49947456  0.16745421  0.83362497  1
  Fe  Fe39  1  0.49641389  0.49577336  0.49697757  1
  Fe  Fe40  1  0.33413908  0.33199340  0.66358326  1
  Fe  Fe41  1  0.50050459  0.49820891  0.83449289  1
  Cr  Cr42  1  0.49810075  0.83246266  0.49790977  1
  Cr  Cr43  1  0.33293580  0.66396966  0.66434381  1
  Cr  Cr44  1  0.49940457  0.83123780  0.83298956  1
  Fe  Fe45  1  0.83156596  0.16493102  0.49598380  1
  Cr  Cr46  1  0.66565075  0.00098483  0.66313402  1
  Ni  Ni47  1  0.82961524  0.16517284  0.83106463  1
  Cr  Cr48  1  0.83194306  0.49769215  0.49622084  1
  Fe  Fe49  1  0.66297994  0.33350959  0.66459196  1
  Fe  Fe50  1  0.82824126  0.49597068  0.83292453  1
  Cr  Cr51  1  0.83266038  0.83141175  0.49854509  1
  Fe  Fe52  1  0.66605314  0.66128131  0.66535068  1
  Cr  Cr53  1  0.83131152  0.82879391  0.83171355  1
" 