8164,Ni9Fe26Cr64_15,-213.618202590835, 186.187132773654,Ni9Fe26Cr64,"# generated using pymatgen
 data_Cr35Fe14Ni5
_symmetry_space_group_name_H-M   'P 1'
_cell_length_a   7.54764386
_cell_length_b   7.54764386
_cell_length_c   10.67398031
_cell_angle_alpha   90.00000000
_cell_angle_beta   90.00000000
_cell_angle_gamma   90.00000000
_symmetry_Int_Tables_number   1
_chemical_formula_structural   Cr35Fe14Ni5
_chemical_formula_sum   'Cr35 Fe14 Ni5'
_cell_volume   608.06386549
_cell_formula_units_Z   1
loop_
 _symmetry_equiv_pos_site_id
 _symmetry_equiv_pos_as_xyz
  1  'x, y, z'
loop_
 _atom_site_type_symbol
 _atom_site_label
 _atom_site_symmetry_multiplicity
 _atom_site_fract_x
 _atom_site_fract_y
 _atom_site_fract_z
 _atom_site_occupancy
  Cr  Cr0  1  -0.00455683  0.98936857  -0.00529970  1
  Cr  Cr1  1  0.16050136  0.16134056  0.16016202  1
  Cr  Cr2  1  0.99335204  0.99033494  0.32812412  1
  Fe  Fe3  1  -0.00517008  0.32801611  0.99421280  1
  Cr  Cr4  1  0.16141440  0.49325579  0.16131404  1
  Fe  Fe5  1  -0.00496683  0.32702252  0.32874847  1
  Cr  Cr6  1  -0.00470449  0.66424063  -0.00309887  1
  Fe  Fe7  1  0.16181019  0.82875435  0.16089880  1
  Cr  Cr8  1  0.99201514  0.66345135  0.32659269  1
  Fe  Fe9  1  0.32862070  0.99239922  0.99458179  1
  Ni  Ni10  1  0.49515048  0.15922626  0.16365602  1
  Cr  Cr11  1  0.32877487  -0.00297699  0.32649361  1
  Cr  Cr12  1  0.33146695  0.32594401  -0.00516562  1
  Cr  Cr13  1  0.49495084  0.49700793  0.16206858  1
  Cr  Cr14  1  0.33258538  0.32606545  0.33111554  1
  Fe  Fe15  1  0.32775026  0.66445014  0.99318302  1
  Cr  Cr16  1  0.49444423  0.82815498  0.15993234  1
  Cr  Cr17  1  0.32472811  0.66167994  0.32746184  1
  Cr  Cr18  1  0.66109783  -0.00494432  -0.00468575  1
  Cr  Cr19  1  0.82893077  0.16100497  0.16067719  1
  Fe  Fe20  1  0.66111514  0.99464055  0.32725042  1
  Cr  Cr21  1  0.65903976  0.32695666  -0.00530087  1
  Cr  Cr22  1  0.82803923  0.49348446  0.16195473  1
  Fe  Fe23  1  0.66171147  0.32578115  0.32779712  1
  Cr  Cr24  1  0.66432566  0.66248465  0.99350367  1
  Ni  Ni25  1  0.82567710  0.82872132  0.16462665  1
  Fe  Fe26  1  0.66149678  0.66374784  0.32739349  1
  Cr  Cr27  1  0.15814232  0.16145955  0.49596113  1
  Fe  Fe28  1  -0.00523836  -0.00504788  0.66106066  1
  Cr  Cr29  1  0.15850964  0.16088170  0.82745819  1
  Cr  Cr30  1  0.16075981  0.49411372  0.49557876  1
  Ni  Ni31  1  0.99251130  0.32819217  0.66127488  1
  Cr  Cr32  1  0.16136675  0.49376101  0.82724509  1
  Cr  Cr33  1  0.16413255  0.82879367  0.49612501  1
  Cr  Cr34  1  0.99403667  0.66372925  0.66028257  1
  Fe  Fe35  1  0.16363364  0.82729111  0.82747493  1
  Fe  Fe36  1  0.49723831  0.16012524  0.49378205  1
  Cr  Cr37  1  0.32889497  -0.00440887  0.66192888  1
  Cr  Cr38  1  0.49484172  0.15648660  0.82845029  1
  Cr  Cr39  1  0.49552287  0.50003556  0.49483302  1
  Cr  Cr40  1  0.32996463  0.32838000  0.65844830  1
  Cr  Cr41  1  0.49362650  0.50086352  0.82729555  1
  Cr  Cr42  1  0.49731157  0.82806714  0.49556962  1
  Ni  Ni43  1  0.32840357  0.66478164  0.66391120  1
  Ni  Ni44  1  0.49189880  0.82762430  0.82714433  1
  Cr  Cr45  1  0.82849346  0.15915709  0.49602822  1
  Fe  Fe46  1  0.66092426  0.99311941  0.66104001  1
  Cr  Cr47  1  0.83109928  0.16118579  0.82744941  1
  Cr  Cr48  1  0.82692968  0.49391471  0.49335747  1
  Cr  Cr49  1  0.65927858  0.32676955  0.66283717  1
  Cr  Cr50  1  0.82936269  0.49299559  0.82853945  1
  Fe  Fe51  1  0.82670945  0.82785527  0.49489201  1
  Fe  Fe52  1  0.65988386  0.66209202  0.66180309  1
  Cr  Cr53  1  0.82384605  0.82985311  0.82371558  1
" 