2067,Ni9Fe62Cr27_1,-223.55401112192, 171.004464543961,Ni9Fe62Cr27,"# generated using pymatgen
 data_Cr16Fe33Ni5
_symmetry_space_group_name_H-M   'P 1'
_cell_length_a   7.48313713
_cell_length_b   7.48313713
_cell_length_c   10.58275402
_cell_angle_alpha   90.00000000
_cell_angle_beta   90.00000000
_cell_angle_gamma   90.00000000
_symmetry_Int_Tables_number   1
_chemical_formula_structural   Cr16Fe33Ni5
_chemical_formula_sum   'Cr16 Fe33 Ni5'
_cell_volume   592.60608951
_cell_formula_units_Z   1
loop_
 _symmetry_equiv_pos_site_id
 _symmetry_equiv_pos_as_xyz
  1  'x, y, z'
loop_
 _atom_site_type_symbol
 _atom_site_label
 _atom_site_symmetry_multiplicity
 _atom_site_fract_x
 _atom_site_fract_y
 _atom_site_fract_z
 _atom_site_occupancy
  Fe  Fe0  1  0.99844298  0.00012922  0.99784718  1
  Fe  Fe1  1  0.16516609  0.16892069  0.16508083  1
  Fe  Fe2  1  0.99872584  0.00161891  0.33249657  1
  Fe  Fe3  1  0.00047786  0.33148727  -0.00045415  1
  Ni  Ni4  1  0.16604862  0.49667136  0.16524920  1
  Fe  Fe5  1  0.00121750  0.33044727  0.33129994  1
  Fe  Fe6  1  0.00049370  0.66515717  -0.00025454  1
  Cr  Cr7  1  0.16374322  0.83195013  0.16566392  1
  Cr  Cr8  1  -0.00058219  0.66379430  0.33351457  1
  Cr  Cr9  1  0.33146627  0.99850638  0.99753846  1
  Ni  Ni10  1  0.49974385  0.16790105  0.16519465  1
  Cr  Cr11  1  0.33206476  -0.00093788  0.33441712  1
  Fe  Fe12  1  0.33128485  0.33371221  -0.00000349  1
  Fe  Fe13  1  0.49730728  0.49889290  0.16512343  1
  Fe  Fe14  1  0.33031110  0.33286854  0.33078651  1
  Fe  Fe15  1  0.33208809  0.66375809  0.99808078  1
  Fe  Fe16  1  0.50027481  0.83060640  0.16562781  1
  Fe  Fe17  1  0.33381819  0.66437722  0.33250775  1
  Fe  Fe18  1  0.66641404  -0.00068023  0.00083823  1
  Fe  Fe19  1  0.83343460  0.16595277  0.16439229  1
  Cr  Cr20  1  0.66475470  0.99863499  0.33261244  1
  Fe  Fe21  1  0.66501616  0.33166648  0.00073141  1
  Fe  Fe22  1  0.83264831  0.49856133  0.16437113  1
  Cr  Cr23  1  0.66645864  0.33275792  0.33077839  1
  Fe  Fe24  1  0.66418853  0.66579304  -0.00003950  1
  Fe  Fe25  1  0.83099849  0.83225908  0.16435901  1
  Fe  Fe26  1  0.66316052  0.66686018  0.33103110  1
  Fe  Fe27  1  0.16533955  0.16705858  0.49890217  1
  Cr  Cr28  1  0.00000028  0.00040713  0.66567214  1
  Ni  Ni29  1  0.16510074  0.16705378  0.83384817  1
  Fe  Fe30  1  0.16600101  0.49845389  0.49825649  1
  Fe  Fe31  1  0.00068677  0.33205496  0.66593062  1
  Fe  Fe32  1  0.16621803  0.49831559  0.83343128  1
  Fe  Fe33  1  0.16700670  0.83126256  0.49870387  1
  Fe  Fe34  1  0.00199321  0.66485769  0.66581048  1
  Ni  Ni35  1  0.16471918  0.83124815  0.83273957  1
  Fe  Fe36  1  0.49934406  0.16478709  0.49976847  1
  Cr  Cr37  1  0.33276328  0.99799685  0.66481593  1
  Cr  Cr38  1  0.49921363  0.16739737  0.82992671  1
  Cr  Cr39  1  0.49725455  0.49760361  0.49738424  1
  Fe  Fe40  1  0.33061055  0.33184165  0.66598407  1
  Fe  Fe41  1  0.49672392  0.49908876  0.83327457  1
  Ni  Ni42  1  0.49831374  0.83391729  0.49791342  1
  Cr  Cr43  1  0.33002583  0.66673867  0.66734441  1
  Fe  Fe44  1  0.49771875  0.83139789  0.83286980  1
  Fe  Fe45  1  0.83209275  0.16579824  0.49959114  1
  Fe  Fe46  1  0.66436324  0.00027622  0.66427887  1
  Fe  Fe47  1  0.83429228  0.16561350  0.83279202  1
  Cr  Cr48  1  0.83412465  0.49826507  0.50001386  1
  Fe  Fe49  1  0.66548171  0.32956129  0.66540860  1
  Cr  Cr50  1  0.83284345  0.49833270  0.83109970  1
  Cr  Cr51  1  0.83226228  0.83274747  0.49862713  1
  Cr  Cr52  1  0.66463493  0.66541578  0.66538751  1
  Cr  Cr53  1  0.83365131  0.83278863  0.83338090  1
" 