7675,Ni9Fe57Cr33_13,-222.096832138218, 172.706280582852,Ni9Fe57Cr33,"# generated using pymatgen
 data_Cr19(Fe6Ni)5
_symmetry_space_group_name_H-M   'P 1'
_cell_length_a   7.49679542
_cell_length_b   7.49679542
_cell_length_c   10.60206976
_cell_angle_alpha   90.00000000
_cell_angle_beta   90.00000000
_cell_angle_gamma   90.00000000
_symmetry_Int_Tables_number   1
_chemical_formula_structural   Cr19(Fe6Ni)5
_chemical_formula_sum   'Cr19 Fe30 Ni5'
_cell_volume   595.85690503
_cell_formula_units_Z   1
loop_
 _symmetry_equiv_pos_site_id
 _symmetry_equiv_pos_as_xyz
  1  'x, y, z'
loop_
 _atom_site_type_symbol
 _atom_site_label
 _atom_site_symmetry_multiplicity
 _atom_site_fract_x
 _atom_site_fract_y
 _atom_site_fract_z
 _atom_site_occupancy
  Fe  Fe0  1  0.00137555  -0.00070348  0.99719295  1
  Ni  Ni1  1  0.16245626  0.16472237  0.16610809  1
  Fe  Fe2  1  -0.00029120  -0.00026050  0.32952363  1
  Fe  Fe3  1  0.00106536  0.33124212  -0.00189116  1
  Fe  Fe4  1  0.16616032  0.49740809  0.16562519  1
  Fe  Fe5  1  0.00137693  0.33060561  0.32967025  1
  Fe  Fe6  1  0.00027491  0.66347790  0.99586426  1
  Cr  Cr7  1  0.16686189  0.83466665  0.16315380  1
  Cr  Cr8  1  -0.00194979  0.66291403  0.33305115  1
  Fe  Fe9  1  0.32988109  0.99778993  0.99688670  1
  Cr  Cr10  1  0.49787791  0.16461453  0.16422327  1
  Ni  Ni11  1  0.33478055  0.00093871  0.33193963  1
  Cr  Cr12  1  0.32973181  0.33125868  0.00017748  1
  Fe  Fe13  1  0.49528379  0.49878405  0.16494940  1
  Fe  Fe14  1  0.32907852  0.33175483  0.33008626  1
  Ni  Ni15  1  0.33029795  0.66383183  -0.00196896  1
  Cr  Cr16  1  0.49592290  0.82810443  0.16390850  1
  Fe  Fe17  1  0.33196906  0.66429101  0.33043319  1
  Fe  Fe18  1  0.66274986  0.99691633  0.99646553  1
  Fe  Fe19  1  0.83389132  0.16385167  0.16439408  1
  Fe  Fe20  1  0.66302280  0.99691221  0.33250222  1
  Fe  Fe21  1  0.66404792  0.33210444  -0.00196964  1
  Cr  Cr22  1  0.82788466  0.49557275  0.16169367  1
  Fe  Fe23  1  0.66298136  0.33054712  0.32998621  1
  Fe  Fe24  1  0.66322871  0.66510656  0.99664351  1
  Cr  Cr25  1  0.83133730  0.83272969  0.16422893  1
  Fe  Fe26  1  0.66249002  0.66632379  0.33161120  1
  Cr  Cr27  1  0.16500958  0.16337544  0.49656539  1
  Cr  Cr28  1  0.99602916  0.99539513  0.66426598  1
  Ni  Ni29  1  0.16567574  0.16018252  0.83267481  1
  Ni  Ni30  1  0.16754146  0.49945121  0.49667587  1
  Cr  Cr31  1  0.00167998  0.33383889  0.66596980  1
  Fe  Fe32  1  0.16514444  0.49816489  0.83337950  1
  Cr  Cr33  1  0.16858013  0.83246021  0.49773593  1
  Cr  Cr34  1  0.99787778  0.66474893  0.66654604  1
  Fe  Fe35  1  0.16718616  0.83136380  0.83389273  1
  Fe  Fe36  1  0.49660481  0.16432498  0.49533102  1
  Fe  Fe37  1  0.33131761  0.99685195  0.66634180  1
  Fe  Fe38  1  0.49594743  0.16272594  0.83274686  1
  Cr  Cr39  1  0.49808426  0.49964290  0.49642838  1
  Cr  Cr40  1  0.33183326  0.32956348  0.66445290  1
  Cr  Cr41  1  0.50143016  0.50005307  0.83173208  1
  Fe  Fe42  1  0.49747572  0.83202720  0.49584686  1
  Fe  Fe43  1  0.33156796  0.66644474  0.66611616  1
  Fe  Fe44  1  0.49543974  0.83316827  0.83351791  1
  Cr  Cr45  1  0.83119885  0.16571262  0.49360139  1
  Cr  Cr46  1  0.66097005  0.99685562  0.66246687  1
  Cr  Cr47  1  0.83234606  0.16792451  0.83451861  1
  Cr  Cr48  1  0.82905858  0.49651630  0.50178465  1
  Fe  Fe49  1  0.66459675  0.33069261  0.66583699  1
  Fe  Fe50  1  0.83268486  0.49919933  0.83382653  1
  Fe  Fe51  1  0.82929328  0.83006399  0.49594085  1
  Fe  Fe52  1  0.66381081  0.66622234  0.66584132  1
  Fe  Fe53  1  0.83068968  0.83038586  0.83433556  1
" 