1387,Ni9Fe62Cr27_15,-222.868242274973, 165.965754161155,Ni9Fe62Cr27,"# generated using pymatgen
 data_Cr16Fe33Ni5
_symmetry_space_group_name_H-M   'P 1'
_cell_length_a   7.47940902
_cell_length_b   7.47940902
_cell_length_c   10.57748168
_cell_angle_alpha   90.00000000
_cell_angle_beta   90.00000000
_cell_angle_gamma   90.00000000
_symmetry_Int_Tables_number   1
_chemical_formula_structural   Cr16Fe33Ni5
_chemical_formula_sum   'Cr16 Fe33 Ni5'
_cell_volume   591.72081869
_cell_formula_units_Z   1
loop_
 _symmetry_equiv_pos_site_id
 _symmetry_equiv_pos_as_xyz
  1  'x, y, z'
loop_
 _atom_site_type_symbol
 _atom_site_label
 _atom_site_symmetry_multiplicity
 _atom_site_fract_x
 _atom_site_fract_y
 _atom_site_fract_z
 _atom_site_occupancy
  Ni  Ni0  1  0.99863144  0.99744691  0.00059262  1
  Fe  Fe1  1  0.16531462  0.16141759  0.16638701  1
  Fe  Fe2  1  -0.00003498  0.99827816  0.33154658  1
  Cr  Cr3  1  -0.00056863  0.33036323  -0.00047534  1
  Fe  Fe4  1  0.16631292  0.50245156  0.16714601  1
  Fe  Fe5  1  0.00014734  0.33158559  0.33143858  1
  Fe  Fe6  1  0.00136828  0.66919768  0.99893295  1
  Fe  Fe7  1  0.16518843  0.83276436  0.16643462  1
  Fe  Fe8  1  0.00193769  0.66744959  0.33288447  1
  Ni  Ni9  1  0.33067651  0.99875955  0.00080441  1
  Ni  Ni10  1  0.50011488  0.16288194  0.16632990  1
  Fe  Fe11  1  0.33239312  0.99797807  0.33187554  1
  Cr  Cr12  1  0.33328348  0.33123677  0.00404429  1
  Cr  Cr13  1  0.50197100  0.50033951  0.16559484  1
  Cr  Cr14  1  0.33305512  0.33175638  0.33040952  1
  Fe  Fe15  1  0.32883529  0.66859261  0.00008296  1
  Cr  Cr16  1  0.49826895  0.83395636  0.16489724  1
  Ni  Ni17  1  0.33199978  0.66603841  0.33372343  1
  Fe  Fe18  1  0.66694485  0.00125358  -0.00009266  1
  Fe  Fe19  1  0.83062179  0.16328227  0.16682497  1
  Fe  Fe20  1  0.66460979  -0.00021269  0.33298670  1
  Fe  Fe21  1  0.66707054  0.32759880  -0.00046065  1
  Cr  Cr22  1  0.83397862  0.50089873  0.16626667  1
  Fe  Fe23  1  0.66534596  0.33008269  0.33314713  1
  Cr  Cr24  1  0.66739675  0.66681656  0.99648399  1
  Fe  Fe25  1  0.83305949  0.83527771  0.16657498  1
  Fe  Fe26  1  0.66407837  0.66771454  0.33395395  1
  Cr  Cr27  1  0.16593557  0.16490345  0.50129962  1
  Cr  Cr28  1  0.99787012  0.99811224  0.66624491  1
  Cr  Cr29  1  0.16633068  0.16382780  0.83075271  1
  Fe  Fe30  1  0.16726875  0.50058947  0.49912771  1
  Fe  Fe31  1  0.99548605  0.33283983  0.66578889  1
  Cr  Cr32  1  0.16533493  0.49998632  0.83109569  1
  Fe  Fe33  1  0.16689180  0.83121417  0.49754923  1
  Cr  Cr34  1  0.99899464  0.66864686  0.66700454  1
  Fe  Fe35  1  0.16831882  0.83362452  0.83481332  1
  Fe  Fe36  1  0.50154579  0.16559418  0.49935275  1
  Fe  Fe37  1  0.33583776  0.99581087  0.66516253  1
  Cr  Cr38  1  0.49904534  0.16328249  0.83262989  1
  Fe  Fe39  1  0.49777614  0.49859971  0.49897252  1
  Fe  Fe40  1  0.33445487  0.33377357  0.66387865  1
  Cr  Cr41  1  0.49893392  0.49915058  0.83346148  1
  Fe  Fe42  1  0.49782601  0.83344205  0.49709803  1
  Fe  Fe43  1  0.33310045  0.66725343  0.66314290  1
  Fe  Fe44  1  0.49586315  0.83382388  0.83338081  1
  Fe  Fe45  1  0.83034723  0.16514508  0.49856612  1
  Fe  Fe46  1  0.66553194  -0.00017118  0.66439598  1
  Fe  Fe47  1  0.83139243  0.16571547  0.83239368  1
  Cr  Cr48  1  0.83299246  0.49901674  0.49793843  1
  Ni  Ni49  1  0.66455007  0.33144438  0.66535527  1
  Fe  Fe50  1  0.83174971  0.49595530  0.83154998  1
  Fe  Fe51  1  0.83232973  0.83507675  0.49645648  1
  Cr  Cr52  1  0.66492392  0.66793830  0.66525218  1
  Fe  Fe53  1  0.83274273  0.83557371  0.83437736  1
" 