7067,Ni9Fe84Cr6_3,-226.686563958994, 150.6542439328,Ni9Fe84Cr6,"# generated using pymatgen
 data_Cr4(Fe9Ni)5
_symmetry_space_group_name_H-M   'P 1'
_cell_length_a   7.43202182
_cell_length_b   7.43202182
_cell_length_c   10.51046605
_cell_angle_alpha   90.00000000
_cell_angle_beta   90.00000000
_cell_angle_gamma   90.00000000
_symmetry_Int_Tables_number   1
_chemical_formula_structural   Cr4(Fe9Ni)5
_chemical_formula_sum   'Cr4 Fe45 Ni5'
_cell_volume   580.54504828
_cell_formula_units_Z   1
loop_
 _symmetry_equiv_pos_site_id
 _symmetry_equiv_pos_as_xyz
  1  'x, y, z'
loop_
 _atom_site_type_symbol
 _atom_site_label
 _atom_site_symmetry_multiplicity
 _atom_site_fract_x
 _atom_site_fract_y
 _atom_site_fract_z
 _atom_site_occupancy
  Fe  Fe0  1  0.00317911  0.00302647  0.00273896  1
  Fe  Fe1  1  0.16870462  0.16869060  0.16908370  1
  Fe  Fe2  1  0.00266463  0.00353967  0.33530490  1
  Fe  Fe3  1  0.00352863  0.33394357  1.00160920  1
  Fe  Fe4  1  0.17219459  0.50169807  0.16881365  1
  Fe  Fe5  1  0.00301243  0.33349637  0.33649559  1
  Cr  Cr6  1  0.00439106  0.66987379  1.00162821  1
  Ni  Ni7  1  0.17108924  0.83805407  0.16917140  1
  Cr  Cr8  1  0.00385032  0.67013005  0.33589802  1
  Fe  Fe9  1  0.33509120  1.00133076  0.00274906  1
  Fe  Fe10  1  0.50211206  0.16865416  0.16914545  1
  Fe  Fe11  1  0.33515225  1.00194062  0.33542026  1
  Fe  Fe12  1  0.33584633  0.33674079  1.00201815  1
  Fe  Fe13  1  0.50007909  0.50319447  0.16823654  1
  Fe  Fe14  1  0.33557385  0.33586212  0.33581556  1
  Ni  Ni15  1  0.33616937  0.66862524  0.00343724  1
  Fe  Fe16  1  0.50175014  0.83521950  0.16881081  1
  Fe  Fe17  1  0.33681577  0.66927000  0.33478972  1
  Fe  Fe18  1  0.66880204  1.00178598  1.00190029  1
  Fe  Fe19  1  0.83625362  0.16701742  0.16902008  1
  Fe  Fe20  1  0.66925493  1.00229884  0.33620653  1
  Fe  Fe21  1  0.66769230  0.33593142  1.00125113  1
  Cr  Cr22  1  0.83366193  0.50085371  0.16850417  1
  Fe  Fe23  1  0.66847912  0.33514947  0.33652034  1
  Fe  Fe24  1  0.66601207  0.66934958  1.00082415  1
  Fe  Fe25  1  0.83475793  0.83871180  0.16908281  1
  Fe  Fe26  1  0.66689010  0.66961772  0.33701077  1
  Fe  Fe27  1  0.16899789  0.16917172  0.50235999  1
  Fe  Fe28  1  1.00108749  1.00199774  0.66902636  1
  Fe  Fe29  1  0.16945097  0.16968486  0.83562569  1
  Fe  Fe30  1  0.16967902  0.50146839  0.50303824  1
  Fe  Fe31  1  0.00279302  0.33568082  0.66896261  1
  Fe  Fe32  1  0.17056452  0.50174085  0.83522039  1
  Fe  Fe33  1  0.16976802  0.83643102  0.50246287  1
  Fe  Fe34  1  1.00102982  0.66939102  0.66890089  1
  Fe  Fe35  1  0.17055788  0.83564577  0.83585765  1
  Fe  Fe36  1  0.50183408  0.16794973  0.50177263  1
  Fe  Fe37  1  0.33689861  1.00211265  0.66890088  1
  Fe  Fe38  1  0.50189529  0.16855931  0.83615070  1
  Fe  Fe39  1  0.50185990  0.50339548  0.50230038  1
  Fe  Fe40  1  0.33552577  0.33590332  0.66923824  1
  Ni  Ni41  1  0.50220656  0.50345581  0.83687105  1
  Fe  Fe42  1  0.50299149  0.83572401  0.50290652  1
  Fe  Fe43  1  0.33718354  0.66905488  0.66981339  1
  Fe  Fe44  1  0.50271633  0.83484244  0.83535499  1
  Fe  Fe45  1  0.83623586  0.16803760  0.50178441  1
  Ni  Ni46  1  0.66882853  1.00109137  0.66882581  1
  Fe  Fe47  1  0.83572119  0.16855097  0.83626450  1
  Fe  Fe48  1  0.83553090  0.50262592  0.50230967  1
  Cr  Cr49  1  0.66828710  0.33498181  0.66903522  1
  Fe  Fe50  1  0.83492245  0.50256356  0.83561319  1
  Fe  Fe51  1  0.83431505  0.83640449  0.50370449  1
  Ni  Ni52  1  0.66955548  0.67082014  0.66917877  1
  Fe  Fe53  1  0.83380069  0.83595424  0.83427996  1
" 