1012,Ni9Fe84Cr6_7,-226.524241362535, 152.682831033874,Ni9Fe84Cr6,"# generated using pymatgen
 data_Cr4(Fe9Ni)5
_symmetry_space_group_name_H-M   'P 1'
_cell_length_a   7.42779054
_cell_length_b   7.42779054
_cell_length_c   10.50448211
_cell_angle_alpha   90.00000000
_cell_angle_beta   90.00000000
_cell_angle_gamma   90.00000000
_symmetry_Int_Tables_number   1
_chemical_formula_structural   Cr4(Fe9Ni)5
_chemical_formula_sum   'Cr4 Fe45 Ni5'
_cell_volume   579.55404606
_cell_formula_units_Z   1
loop_
 _symmetry_equiv_pos_site_id
 _symmetry_equiv_pos_as_xyz
  1  'x, y, z'
loop_
 _atom_site_type_symbol
 _atom_site_label
 _atom_site_symmetry_multiplicity
 _atom_site_fract_x
 _atom_site_fract_y
 _atom_site_fract_z
 _atom_site_occupancy
  Ni  Ni0  1  1.00241585  0.00403086  0.00321237  1
  Fe  Fe1  1  0.16866458  0.16937832  0.16868309  1
  Fe  Fe2  1  0.00287740  1.00235408  0.33481835  1
  Fe  Fe3  1  0.00293320  0.33346823  0.00285391  1
  Fe  Fe4  1  0.16990679  0.50160606  0.17055668  1
  Ni  Ni5  1  0.00377335  0.33743048  0.33514056  1
  Cr  Cr6  1  0.00343358  0.67020798  1.00187195  1
  Fe  Fe7  1  0.16990568  0.83695060  0.16976739  1
  Fe  Fe8  1  1.00198566  0.66924702  0.33603208  1
  Fe  Fe9  1  0.33477232  0.00277929  1.00232192  1
  Fe  Fe10  1  0.50303307  0.16901582  0.16969894  1
  Fe  Fe11  1  0.33604115  0.00330379  0.33603369  1
  Fe  Fe12  1  0.33496882  0.33528257  1.00235306  1
  Fe  Fe13  1  0.50257168  0.50274193  0.16913853  1
  Fe  Fe14  1  0.33595496  0.33531512  0.33593474  1
  Fe  Fe15  1  0.33710013  0.66986804  1.00212417  1
  Fe  Fe16  1  0.50293112  0.83616884  0.16964198  1
  Fe  Fe17  1  0.33591980  0.66930877  0.33653615  1
  Fe  Fe18  1  0.67014688  1.00234955  0.00324364  1
  Fe  Fe19  1  0.83622948  0.16901707  0.16987444  1
  Ni  Ni20  1  0.66818617  1.00194761  0.33514241  1
  Fe  Fe21  1  0.67002455  0.33578078  1.00257578  1
  Fe  Fe22  1  0.83545297  0.50150512  0.17044672  1
  Fe  Fe23  1  0.66907172  0.33620882  0.33515172  1
  Fe  Fe24  1  0.66832987  0.66979838  1.00261332  1
  Fe  Fe25  1  0.83509135  0.83740864  0.17008838  1
  Fe  Fe26  1  0.67002251  0.66933361  0.33593355  1
  Fe  Fe27  1  0.17139099  0.17049966  0.50210840  1
  Cr  Cr28  1  0.00305524  0.00299011  0.66995884  1
  Ni  Ni29  1  0.16899621  0.17008172  0.83653152  1
  Fe  Fe30  1  0.16988618  0.50166013  0.50177522  1
  Fe  Fe31  1  0.00431738  0.33716514  0.66982396  1
  Fe  Fe32  1  0.17128928  0.50070672  0.83559403  1
  Fe  Fe33  1  0.17110383  0.83576883  0.50135236  1
  Cr  Cr34  1  0.00350671  0.66825810  0.66903525  1
  Fe  Fe35  1  0.17178902  0.83738086  0.83680839  1
  Fe  Fe36  1  0.50143093  0.16891744  0.50230931  1
  Fe  Fe37  1  0.33711232  1.00215209  0.66957260  1
  Fe  Fe38  1  0.50215546  0.16934586  0.83591762  1
  Fe  Fe39  1  0.50250769  0.50280478  0.50310366  1
  Fe  Fe40  1  0.33530284  0.33623324  0.66963959  1
  Fe  Fe41  1  0.50179149  0.50243392  0.83568834  1
  Fe  Fe42  1  0.50286554  0.83620127  0.50269989  1
  Ni  Ni43  1  0.33780540  0.66837007  0.67002574  1
  Fe  Fe44  1  0.50179040  0.83614611  0.83558754  1
  Cr  Cr45  1  0.83597322  0.17012281  0.50218400  1
  Fe  Fe46  1  0.66642795  1.00097043  0.66943225  1
  Fe  Fe47  1  0.83607976  0.16984543  0.83687115  1
  Fe  Fe48  1  0.83553972  0.50310033  0.50154969  1
  Fe  Fe49  1  0.66830862  0.33749276  0.67020007  1
  Fe  Fe50  1  0.83485157  0.50033880  0.83592412  1
  Fe  Fe51  1  0.83396132  0.83469377  0.50069380  1
  Fe  Fe52  1  0.66736504  0.66946583  0.66938083  1
  Fe  Fe53  1  0.83435063  0.83774575  0.83714167  1
" 