7349,Ni9Fe57Cr33_4,-222.133398049419, 175.235545354555,Ni9Fe57Cr33,"# generated using pymatgen
 data_Cr19(Fe6Ni)5
_symmetry_space_group_name_H-M   'P 1'
_cell_length_a   7.48969439
_cell_length_b   7.48969439
_cell_length_c   10.59202739
_cell_angle_alpha   90.00000000
_cell_angle_beta   90.00000000
_cell_angle_gamma   90.00000000
_symmetry_Int_Tables_number   1
_chemical_formula_structural   Cr19(Fe6Ni)5
_chemical_formula_sum   'Cr19 Fe30 Ni5'
_cell_volume   594.16530594
_cell_formula_units_Z   1
loop_
 _symmetry_equiv_pos_site_id
 _symmetry_equiv_pos_as_xyz
  1  'x, y, z'
loop_
 _atom_site_type_symbol
 _atom_site_label
 _atom_site_symmetry_multiplicity
 _atom_site_fract_x
 _atom_site_fract_y
 _atom_site_fract_z
 _atom_site_occupancy
  Cr  Cr0  1  -0.00101056  0.99821514  0.99694177  1
  Cr  Cr1  1  0.16727457  0.16353753  0.16586672  1
  Cr  Cr2  1  0.99658850  0.99549568  0.33423885  1
  Fe  Fe3  1  0.99835824  0.33010115  0.99673101  1
  Fe  Fe4  1  0.16780543  0.49963792  0.16594772  1
  Cr  Cr5  1  -0.00139135  0.33521390  0.32946477  1
  Cr  Cr6  1  -0.00082364  0.66255404  0.00056152  1
  Cr  Cr7  1  0.16786510  0.83134684  0.16636575  1
  Fe  Fe8  1  -0.00065721  0.66642338  0.33358852  1
  Ni  Ni9  1  0.33440298  0.99845073  0.99469768  1
  Fe  Fe10  1  0.49706065  0.16209014  0.16648297  1
  Ni  Ni11  1  0.33507433  0.99741357  0.33303881  1
  Cr  Cr12  1  0.33125260  0.33096055  0.99820844  1
  Fe  Fe13  1  0.49676764  0.49794961  0.16587053  1
  Fe  Fe14  1  0.33516430  0.33276236  0.33042735  1
  Fe  Fe15  1  0.33226200  0.66751906  0.99550642  1
  Cr  Cr16  1  0.49752176  0.83111065  0.16046593  1
  Fe  Fe17  1  0.33218351  0.66602717  0.33411809  1
  Ni  Ni18  1  0.66180469  -0.00104551  0.99795134  1
  Cr  Cr19  1  0.82940560  0.16347168  0.16591258  1
  Ni  Ni20  1  0.66145353  0.99691918  0.33094839  1
  Cr  Cr21  1  0.66508710  0.33098280  0.00038790  1
  Fe  Fe22  1  0.83120236  0.50098218  0.16527034  1
  Fe  Fe23  1  0.66262922  0.33082052  0.33012272  1
  Fe  Fe24  1  0.66393874  0.66632271  -0.00094723  1
  Fe  Fe25  1  0.82998550  0.83187189  0.16435709  1
  Cr  Cr26  1  0.66566722  0.66538882  0.33268939  1
  Cr  Cr27  1  0.16614272  0.16474736  0.49920722  1
  Fe  Fe28  1  0.00012819  0.99680778  0.66685208  1
  Fe  Fe29  1  0.16760216  0.16279665  0.83138352  1
  Fe  Fe30  1  0.16722999  0.49762988  0.49701275  1
  Cr  Cr31  1  -0.00118663  0.33170449  0.67078620  1
  Fe  Fe32  1  0.16521042  0.50142456  0.83254432  1
  Fe  Fe33  1  0.16787929  0.83227807  0.49760955  1
  Cr  Cr34  1  -0.00126500  0.66551355  0.66077349  1
  Ni  Ni35  1  0.16621534  0.83305639  0.83125563  1
  Cr  Cr36  1  0.49875177  0.16705785  0.49705965  1
  Fe  Fe37  1  0.33166585  -0.00107560  0.66662160  1
  Fe  Fe38  1  0.49891124  0.16173981  0.83050821  1
  Fe  Fe39  1  0.49848640  0.49824968  0.49919716  1
  Fe  Fe40  1  0.33272917  0.33172689  0.66664824  1
  Cr  Cr41  1  0.50064244  0.50129488  0.83094429  1
  Fe  Fe42  1  0.49869583  0.83417101  0.49781042  1
  Cr  Cr43  1  0.33287499  0.66760021  0.66434048  1
  Fe  Fe44  1  0.49730745  0.83432014  0.83287137  1
  Cr  Cr45  1  0.83050627  0.16511226  0.50010633  1
  Fe  Fe46  1  0.66353129  0.99702739  0.66568771  1
  Fe  Fe47  1  0.82910442  0.16407526  0.83191925  1
  Fe  Fe48  1  0.83021404  0.49714413  0.49872902  1
  Fe  Fe49  1  0.66397558  0.33302153  0.66636548  1
  Fe  Fe50  1  0.83232368  0.49937030  0.83244754  1
  Fe  Fe51  1  0.82876650  0.83283955  0.49939547  1
  Fe  Fe52  1  0.66554227  0.66547617  0.66244191  1
  Cr  Cr53  1  0.82950093  0.83072551  0.83262513  1
" 