344,Ni9Fe84Cr6_9,-226.8448170217, 155.200258907488,Ni9Fe84Cr6,"# generated using pymatgen
 data_Cr4(Fe9Ni)5
_symmetry_space_group_name_H-M   'P 1'
_cell_length_a   7.43009731
_cell_length_b   7.43009731
_cell_length_c   10.50774438
_cell_angle_alpha   90.00000000
_cell_angle_beta   90.00000000
_cell_angle_gamma   90.00000000
_symmetry_Int_Tables_number   1
_chemical_formula_structural   Cr4(Fe9Ni)5
_chemical_formula_sum   'Cr4 Fe45 Ni5'
_cell_volume   580.09417157
_cell_formula_units_Z   1
loop_
 _symmetry_equiv_pos_site_id
 _symmetry_equiv_pos_as_xyz
  1  'x, y, z'
loop_
 _atom_site_type_symbol
 _atom_site_label
 _atom_site_symmetry_multiplicity
 _atom_site_fract_x
 _atom_site_fract_y
 _atom_site_fract_z
 _atom_site_occupancy
  Fe  Fe0  1  0.00465627  1.00198829  1.00239078  1
  Fe  Fe1  1  0.16915398  0.16905353  0.16928528  1
  Fe  Fe2  1  1.00178413  1.00187821  0.33408884  1
  Fe  Fe3  1  0.00394358  0.33557084  0.00293637  1
  Fe  Fe4  1  0.16912942  0.50305973  0.16914982  1
  Fe  Fe5  1  1.00137415  0.33697368  0.33533049  1
  Fe  Fe6  1  0.00398359  0.66989961  0.00357132  1
  Fe  Fe7  1  0.16912947  0.83534197  0.16911059  1
  Ni  Ni8  1  0.00466760  0.66741066  0.33559473  1
  Fe  Fe9  1  0.33419106  1.00187443  0.00248708  1
  Fe  Fe10  1  0.50201005  0.16966688  0.17036717  1
  Fe  Fe11  1  0.33676696  1.00114045  0.33499997  1
  Fe  Fe12  1  0.33574713  0.33652403  1.00215879  1
  Fe  Fe13  1  0.50230989  0.50272401  0.16865372  1
  Fe  Fe14  1  0.33633899  0.33687394  0.33536938  1
  Ni  Ni15  1  0.33470043  0.66771250  1.00177324  1
  Fe  Fe16  1  0.50169843  0.83507064  0.16992289  1
  Fe  Fe17  1  0.33545886  0.66944588  0.33561141  1
  Cr  Cr18  1  0.66979861  0.00304020  1.00140709  1
  Fe  Fe19  1  0.83629529  0.16966733  0.17022924  1
  Ni  Ni20  1  0.66801554  0.00455859  0.33626363  1
  Fe  Fe21  1  0.66776956  0.33720120  0.00330652  1
  Fe  Fe22  1  0.83602180  0.50274977  0.16922635  1
  Fe  Fe23  1  0.66974868  0.33566635  0.33577907  1
  Fe  Fe24  1  0.66765524  0.66834522  0.00324002  1
  Fe  Fe25  1  0.83663120  0.83504580  0.17084071  1
  Fe  Fe26  1  0.66901173  0.66903839  0.33497417  1
  Cr  Cr27  1  0.16951423  0.16989140  0.50180278  1
  Fe  Fe28  1  1.00236111  0.00255254  0.67097829  1
  Fe  Fe29  1  0.16885869  0.16988455  0.83562039  1
  Ni  Ni30  1  0.16932839  0.50326141  0.50222849  1
  Fe  Fe31  1  0.00306267  0.33635822  0.66919279  1
  Ni  Ni32  1  0.17081848  0.50200128  0.83630109  1
  Fe  Fe33  1  0.17048077  0.83328630  0.50218556  1
  Fe  Fe34  1  0.00468871  0.66854960  0.66848579  1
  Fe  Fe35  1  0.16919971  0.83480853  0.83616241  1
  Fe  Fe36  1  0.50408158  0.16919317  0.50218749  1
  Fe  Fe37  1  0.33673307  1.00170800  0.66997085  1
  Fe  Fe38  1  0.50137018  0.17076429  0.83490426  1
  Fe  Fe39  1  0.50191553  0.50242045  0.50258424  1
  Fe  Fe40  1  0.33603399  0.33720305  0.66992905  1
  Fe  Fe41  1  0.50004749  0.50278914  0.83622004  1
  Fe  Fe42  1  0.50035897  0.83585069  0.50225397  1
  Fe  Fe43  1  0.33525367  0.66854776  0.66975895  1
  Fe  Fe44  1  0.50105692  0.83390455  0.83527968  1
  Fe  Fe45  1  0.83438550  0.17107814  0.50228498  1
  Fe  Fe46  1  0.66836404  0.00333227  0.66963216  1
  Fe  Fe47  1  0.83723368  0.16887727  0.83494349  1
  Fe  Fe48  1  0.83695179  0.50093029  0.50241320  1
  Fe  Fe49  1  0.66836547  0.33487914  0.66837625  1
  Cr  Cr50  1  0.83607267  0.50369992  0.83621560  1
  Cr  Cr51  1  0.83502349  0.83558475  0.50234025  1
  Fe  Fe52  1  0.66751605  0.66925056  0.66924717  1
  Fe  Fe53  1  0.83720407  0.83614314  0.83470469  1
" 