8215,Ni9Fe57Cr33_0,-221.861801734956, 171.704044908555,Ni9Fe57Cr33,"# generated using pymatgen
 data_Cr19(Fe6Ni)5
_symmetry_space_group_name_H-M   'P 1'
_cell_length_a   7.48972414
_cell_length_b   7.48972414
_cell_length_c   10.59206946
_cell_angle_alpha   90.00000000
_cell_angle_beta   90.00000000
_cell_angle_gamma   90.00000000
_symmetry_Int_Tables_number   1
_chemical_formula_structural   Cr19(Fe6Ni)5
_chemical_formula_sum   'Cr19 Fe30 Ni5'
_cell_volume   594.17238671
_cell_formula_units_Z   1
loop_
 _symmetry_equiv_pos_site_id
 _symmetry_equiv_pos_as_xyz
  1  'x, y, z'
loop_
 _atom_site_type_symbol
 _atom_site_label
 _atom_site_symmetry_multiplicity
 _atom_site_fract_x
 _atom_site_fract_y
 _atom_site_fract_z
 _atom_site_occupancy
  Fe  Fe0  1  0.99826631  -0.00063580  0.99614431  1
  Ni  Ni1  1  0.16300536  0.16480356  0.16239168  1
  Fe  Fe2  1  0.99650911  0.00186683  0.33309297  1
  Cr  Cr3  1  0.99809886  0.33454569  0.99637630  1
  Fe  Fe4  1  0.16654673  0.49700061  0.16442184  1
  Cr  Cr5  1  -0.00049994  0.33403419  0.33326805  1
  Cr  Cr6  1  0.99679726  0.66623575  -0.00123361  1
  Cr  Cr7  1  0.16317707  0.83736701  0.16648628  1
  Cr  Cr8  1  -0.00025884  0.66638694  0.32890387  1
  Fe  Fe9  1  0.32993734  0.00121327  -0.00113093  1
  Fe  Fe10  1  0.49812028  0.16203434  0.16414194  1
  Cr  Cr11  1  0.33621077  -0.00078856  0.33247302  1
  Fe  Fe12  1  0.33011099  0.33143115  0.00020688  1
  Cr  Cr13  1  0.50151278  0.49804024  0.16640668  1
  Cr  Cr14  1  0.33233058  0.32911697  0.33007053  1
  Cr  Cr15  1  0.32897635  0.66746252  0.99725439  1
  Cr  Cr16  1  0.49947067  0.83028939  0.16384979  1
  Fe  Fe17  1  0.33478850  0.66569720  0.33289740  1
  Fe  Fe18  1  0.66717868  0.99452410  0.99755621  1
  Cr  Cr19  1  0.83337916  0.16318551  0.16664221  1
  Ni  Ni20  1  0.66397004  0.99726951  0.33354722  1
  Cr  Cr21  1  0.66590278  0.32899192  0.00052365  1
  Fe  Fe22  1  0.83095196  0.49902085  0.16691557  1
  Ni  Ni23  1  0.66441156  0.32692037  0.33186285  1
  Fe  Fe24  1  0.66674614  0.66601323  0.99686999  1
  Fe  Fe25  1  0.82960092  0.83348805  0.16572540  1
  Fe  Fe26  1  0.66513609  0.66746938  0.33321474  1
  Fe  Fe27  1  0.16538315  0.16629186  0.49998969  1
  Fe  Fe28  1  0.99559126  0.00038207  0.66574500  1
  Fe  Fe29  1  0.16445497  0.16406885  0.83158986  1
  Fe  Fe30  1  0.16678348  0.49931673  0.50043853  1
  Fe  Fe31  1  -0.00047634  0.32760410  0.66565681  1
  Fe  Fe32  1  0.16707923  0.49603766  0.82969375  1
  Cr  Cr33  1  0.16468298  0.83489925  0.49735630  1
  Cr  Cr34  1  -0.00027211  0.66424396  0.66743427  1
  Fe  Fe35  1  0.16638789  0.83573875  0.83073693  1
  Fe  Fe36  1  0.50055252  0.16230600  0.49919436  1
  Fe  Fe37  1  0.33333358  -0.00099406  0.66469427  1
  Cr  Cr38  1  0.49702729  0.16532028  0.83513824  1
  Cr  Cr39  1  0.49873205  0.49991496  0.49886187  1
  Fe  Fe40  1  0.32982854  0.32958687  0.66434131  1
  Cr  Cr41  1  0.50008275  0.50057825  0.82992237  1
  Ni  Ni42  1  0.49900313  0.83245136  0.50148802  1
  Fe  Fe43  1  0.33388481  0.66879866  0.66571519  1
  Fe  Fe44  1  0.49929219  0.83410285  0.83003756  1
  Fe  Fe45  1  0.83017044  0.15942467  0.49734483  1
  Ni  Ni46  1  0.66318291  0.99747927  0.66504698  1
  Fe  Fe47  1  0.83262765  0.16172699  0.83089387  1
  Cr  Cr48  1  0.82977980  0.49579967  0.49828323  1
  Cr  Cr49  1  0.66603459  0.32590158  0.66412151  1
  Fe  Fe50  1  0.83115038  0.49777246  0.83027373  1
  Fe  Fe51  1  0.82864329  0.83291846  0.49885375  1
  Fe  Fe52  1  0.66579903  0.66915737  0.66538589  1
  Fe  Fe53  1  0.82913551  0.83443939  0.83113513  1
" 