2847,Ni9Fe62Cr27_17,-222.781358367571, 169.782356189233,Ni9Fe62Cr27,"# generated using pymatgen
 data_Cr16Fe33Ni5
_symmetry_space_group_name_H-M   'P 1'
_cell_length_a   7.47221791
_cell_length_b   7.47221791
_cell_length_c   10.56731191
_cell_angle_alpha   90.00000000
_cell_angle_beta   90.00000000
_cell_angle_gamma   90.00000000
_symmetry_Int_Tables_number   1
_chemical_formula_structural   Cr16Fe33Ni5
_chemical_formula_sum   'Cr16 Fe33 Ni5'
_cell_volume   590.01572164
_cell_formula_units_Z   1
loop_
 _symmetry_equiv_pos_site_id
 _symmetry_equiv_pos_as_xyz
  1  'x, y, z'
loop_
 _atom_site_type_symbol
 _atom_site_label
 _atom_site_symmetry_multiplicity
 _atom_site_fract_x
 _atom_site_fract_y
 _atom_site_fract_z
 _atom_site_occupancy
  Fe  Fe0  1  0.00251409  0.00022367  -0.00020584  1
  Fe  Fe1  1  0.16498515  0.16740901  0.16531741  1
  Fe  Fe2  1  0.00054253  0.00053076  0.33314443  1
  Fe  Fe3  1  -0.00029431  0.33376845  -0.00012665  1
  Ni  Ni4  1  0.16862819  0.50142845  0.16672445  1
  Fe  Fe5  1  0.00368119  0.33246617  0.33250401  1
  Cr  Cr6  1  0.99786201  0.66536481  0.99889864  1
  Fe  Fe7  1  0.16743958  0.83330187  0.16520580  1
  Cr  Cr8  1  0.00010705  0.66551586  0.33325626  1
  Fe  Fe9  1  0.33107427  0.99701729  0.99958730  1
  Cr  Cr10  1  0.50127704  0.16705635  0.16590443  1
  Cr  Cr11  1  0.33227185  0.00169619  0.33303481  1
  Cr  Cr12  1  0.33128175  0.32962507  0.99952867  1
  Fe  Fe13  1  0.49793801  0.50250507  0.16525942  1
  Fe  Fe14  1  0.32975261  0.33552936  0.33058381  1
  Fe  Fe15  1  0.33610797  0.66637200  0.00088564  1
  Fe  Fe16  1  0.49761708  0.82933507  0.16503844  1
  Ni  Ni17  1  0.33151219  0.66856654  0.33000781  1
  Cr  Cr18  1  0.66369301  0.99709393  0.99906040  1
  Cr  Cr19  1  0.83496472  0.16430111  0.16642382  1
  Fe  Fe20  1  0.66592232  0.99792577  0.33339436  1
  Fe  Fe21  1  0.66729458  0.33814662  0.99903911  1
  Fe  Fe22  1  0.83348502  0.49861623  0.16401973  1
  Cr  Cr23  1  0.66673951  0.33257217  0.33352957  1
  Ni  Ni24  1  0.66653244  0.66561076  0.99935587  1
  Fe  Fe25  1  0.83340071  0.83219135  0.16566917  1
  Cr  Cr26  1  0.66668351  0.66659772  0.33077273  1
  Fe  Fe27  1  0.16521336  0.16573132  0.50193525  1
  Fe  Fe28  1  0.00224206  0.00169388  0.66614400  1
  Ni  Ni29  1  0.16574618  0.16612833  0.83331615  1
  Cr  Cr30  1  0.16943342  0.50075822  0.50079174  1
  Fe  Fe31  1  0.00120228  0.33166357  0.66696516  1
  Fe  Fe32  1  0.16757243  0.49635801  0.83229770  1
  Fe  Fe33  1  0.17028287  0.83388701  0.50115397  1
  Cr  Cr34  1  0.99941986  0.66474013  0.66698016  1
  Cr  Cr35  1  0.16795327  0.83258287  0.83232909  1
  Fe  Fe36  1  0.49973737  0.16477729  0.50134928  1
  Fe  Fe37  1  0.33341130  0.00012280  0.66584256  1
  Fe  Fe38  1  0.49659184  0.16572013  0.83141653  1
  Cr  Cr39  1  0.49553581  0.50095837  0.49794088  1
  Fe  Fe40  1  0.33258748  0.33229001  0.66932745  1
  Fe  Fe41  1  0.49832671  0.49979248  0.83304481  1
  Fe  Fe42  1  0.49576276  0.83330955  0.50061837  1
  Ni  Ni43  1  0.33355299  0.66739259  0.66799773  1
  Fe  Fe44  1  0.49900666  0.83289781  0.83306766  1
  Fe  Fe45  1  0.83420469  0.16871258  0.50080123  1
  Fe  Fe46  1  0.66329248  0.00061443  0.66680365  1
  Cr  Cr47  1  0.83319566  0.16609072  0.83317808  1
  Fe  Fe48  1  0.83353642  0.49594197  0.50072691  1
  Fe  Fe49  1  0.66519085  0.33246716  0.66570481  1
  Fe  Fe50  1  0.83260938  0.49792830  0.83443257  1
  Cr  Cr51  1  0.83321230  0.83800903  0.49995074  1
  Cr  Cr52  1  0.66730367  0.66612967  0.66810278  1
  Fe  Fe53  1  0.83217955  0.83385186  0.83328482  1
" 