3271,Ni9Fe87Cr2_17,-226.997893612937, 149.548141842255,Ni9Fe87Cr2,"# generated using pymatgen
 data_Cr2Fe47Ni5
_symmetry_space_group_name_H-M   'P 1'
_cell_length_a   7.42041450
_cell_length_b   7.42041450
_cell_length_c   10.49405082
_cell_angle_alpha   90.00000000
_cell_angle_beta   90.00000000
_cell_angle_gamma   90.00000000
_symmetry_Int_Tables_number   1
_chemical_formula_structural   Cr2Fe47Ni5
_chemical_formula_sum   'Cr2 Fe47 Ni5'
_cell_volume   577.82921238
_cell_formula_units_Z   1
loop_
 _symmetry_equiv_pos_site_id
 _symmetry_equiv_pos_as_xyz
  1  'x, y, z'
loop_
 _atom_site_type_symbol
 _atom_site_label
 _atom_site_symmetry_multiplicity
 _atom_site_fract_x
 _atom_site_fract_y
 _atom_site_fract_z
 _atom_site_occupancy
  Fe  Fe0  1  1.00207070  0.00446511  0.00480629  1
  Fe  Fe1  1  0.16675219  0.17005406  0.16998599  1
  Ni  Ni2  1  1.00295960  1.00286943  0.33588742  1
  Fe  Fe3  1  1.00260810  0.33644663  0.00355917  1
  Fe  Fe4  1  0.16870665  0.50266630  0.16998813  1
  Fe  Fe5  1  1.00258018  0.33644959  0.33588123  1
  Fe  Fe6  1  1.00206854  0.66851576  0.00477814  1
  Fe  Fe7  1  0.16828034  0.83670747  0.17021560  1
  Ni  Ni8  1  1.00295926  0.67048621  0.33629098  1
  Fe  Fe9  1  0.33682804  1.00278385  1.00271440  1
  Cr  Cr10  1  0.50412185  0.16925980  0.17021498  1
  Fe  Fe11  1  0.33448212  1.00163877  0.33741463  1
  Fe  Fe12  1  0.33550327  0.33734204  1.00217270  1
  Fe  Fe13  1  0.50427515  0.50416398  0.16981220  1
  Fe  Fe14  1  0.33448681  0.33734208  0.33748906  1
  Fe  Fe15  1  0.33772942  0.66929990  0.00361312  1
  Fe  Fe16  1  0.50423315  0.83473950  0.16906750  1
  Fe  Fe17  1  0.33537962  0.67044471  0.33651431  1
  Fe  Fe18  1  0.67053439  1.00224318  1.00209874  1
  Ni  Ni19  1  0.83806686  0.17099810  0.17050400  1
  Fe  Fe20  1  0.67201229  1.00199333  0.33713581  1
  Fe  Fe21  1  0.67131937  0.33734634  1.00291841  1
  Ni  Ni22  1  0.83738185  0.50263100  0.17050575  1
  Fe  Fe23  1  0.67236311  0.33734685  0.33677860  1
  Fe  Fe24  1  0.66963448  0.66983866  1.00299996  1
  Fe  Fe25  1  0.83691416  0.83670479  0.17041806  1
  Fe  Fe26  1  0.67111586  0.67008698  0.33623227  1
  Fe  Fe27  1  0.16970185  0.16949174  0.50300384  1
  Fe  Fe28  1  1.00227565  0.00415634  0.66838102  1
  Fe  Fe29  1  0.17047322  0.17097549  0.83643508  1
  Fe  Fe30  1  0.16966827  0.50346125  0.50303660  1
  Fe  Fe31  1  0.00317264  0.33647508  0.66999005  1
  Fe  Fe32  1  0.17044066  0.50197405  0.83640207  1
  Fe  Fe33  1  0.16916265  0.83647435  0.50273418  1
  Fe  Fe34  1  1.00227489  0.66879463  0.66838014  1
  Cr  Cr35  1  0.17077295  0.83607364  0.83562217  1
  Fe  Fe36  1  0.50307045  0.16995702  0.50297600  1
  Fe  Fe37  1  0.33769855  0.00372781  0.66929540  1
  Fe  Fe38  1  0.50283504  0.16901373  0.83663767  1
  Fe  Fe39  1  0.50307046  0.50296221  0.50317875  1
  Fe  Fe40  1  0.33636859  0.33647513  0.66976596  1
  Fe  Fe41  1  0.50283456  0.50390879  0.83643564  1
  Fe  Fe42  1  0.50311187  0.83650741  0.50384988  1
  Fe  Fe43  1  0.33769995  0.66922373  0.66929535  1
  Ni  Ni44  1  0.50392883  0.83688107  0.83631646  1
  Fe  Fe45  1  0.83665393  0.16945063  0.50240935  1
  Fe  Fe46  1  0.66945475  1.00282856  0.67019521  1
  Fe  Fe47  1  0.83611927  0.16893889  0.83699725  1
  Fe  Fe48  1  0.83668762  0.50350242  0.50244179  1
  Fe  Fe49  1  0.66988546  0.33647503  0.66973471  1
  Fe  Fe50  1  0.83615234  0.50401382  0.83696436  1
  Fe  Fe51  1  0.83715178  0.83647442  0.50267913  1
  Fe  Fe52  1  0.66945411  0.67012378  0.67019587  1
  Fe  Fe53  1  0.83419206  0.83647430  0.83632836  1
" 