288,Ni9Fe84Cr6_1,-226.581822498085, 152.9056273191,Ni9Fe84Cr6,"# generated using pymatgen
 data_Cr4(Fe9Ni)5
_symmetry_space_group_name_H-M   'P 1'
_cell_length_a   7.42887665
_cell_length_b   7.42887665
_cell_length_c   10.50601812
_cell_angle_alpha   90.00000000
_cell_angle_beta   90.00000000
_cell_angle_gamma   90.00000000
_symmetry_Int_Tables_number   1
_chemical_formula_structural   Cr4(Fe9Ni)5
_chemical_formula_sum   'Cr4 Fe45 Ni5'
_cell_volume   579.80831671
_cell_formula_units_Z   1
loop_
 _symmetry_equiv_pos_site_id
 _symmetry_equiv_pos_as_xyz
  1  'x, y, z'
loop_
 _atom_site_type_symbol
 _atom_site_label
 _atom_site_symmetry_multiplicity
 _atom_site_fract_x
 _atom_site_fract_y
 _atom_site_fract_z
 _atom_site_occupancy
  Ni  Ni0  1  1.00109502  1.00196230  1.00159310  1
  Cr  Cr1  1  0.16929049  0.16983805  0.16929514  1
  Fe  Fe2  1  1.00169474  1.00067305  0.33610889  1
  Fe  Fe3  1  0.00284546  0.33562600  1.00080511  1
  Ni  Ni4  1  0.16990564  0.50334572  0.16933937  1
  Fe  Fe5  1  0.00284594  0.33728610  0.33773169  1
  Fe  Fe6  1  0.00363136  0.67036185  1.00207548  1
  Fe  Fe7  1  0.16751144  0.83369394  0.16917242  1
  Fe  Fe8  1  0.00363289  0.66974848  0.33633372  1
  Fe  Fe9  1  0.33543771  0.00263278  1.00090087  1
  Fe  Fe10  1  0.50377297  0.17154848  0.16917237  1
  Fe  Fe11  1  0.33657658  1.00149195  0.33757147  1
  Fe  Fe12  1  0.33595318  0.33637704  1.00214023  1
  Fe  Fe13  1  0.50029623  0.50139762  0.16978698  1
  Fe  Fe14  1  0.33699891  0.33803673  0.33626818  1
  Fe  Fe15  1  0.33425428  0.66869852  0.00260226  1
  Cr  Cr16  1  0.50287551  0.83605738  0.16938882  1
  Ni  Ni17  1  0.33565246  0.66775873  0.33570458  1
  Fe  Fe18  1  0.67057036  0.00341847  1.00159019  1
  Fe  Fe19  1  0.83503973  0.16775623  0.16889787  1
  Fe  Fe20  1  0.66943571  1.00228319  0.33688221  1
  Fe  Fe21  1  0.66890992  0.33444074  1.00177481  1
  Cr  Cr22  1  0.83677149  0.50304481  0.16944570  1
  Fe  Fe23  1  0.66786338  0.33610007  0.33663434  1
  Fe  Fe24  1  0.66982248  0.66984898  1.00142378  1
  Fe  Fe25  1  0.83815009  0.83717013  0.16917456  1
  Ni  Ni26  1  0.66800094  0.66953738  0.33783940  1
  Fe  Fe27  1  0.16888912  0.16942573  0.50279093  1
  Fe  Fe28  1  0.00408016  0.00313146  0.66975877  1
  Fe  Fe29  1  0.16867805  0.16914949  0.83601944  1
  Fe  Fe30  1  0.16920331  0.50247419  0.50205856  1
  Ni  Ni31  1  0.00318705  0.33595348  0.66980315  1
  Fe  Fe32  1  0.16899128  0.50226204  0.83613738  1
  Fe  Fe33  1  0.16960267  0.83580597  0.50232551  1
  Fe  Fe34  1  1.00235709  0.66882121  0.66929873  1
  Fe  Fe35  1  0.16905022  0.83629568  0.83620682  1
  Fe  Fe36  1  0.50178630  0.16990208  0.50182135  1
  Fe  Fe37  1  0.33393110  0.00315618  0.66923491  1
  Fe  Fe38  1  0.50178586  0.16996555  0.83671407  1
  Fe  Fe39  1  0.50268366  0.50320945  0.50198988  1
  Fe  Fe40  1  0.33555274  0.33562703  0.66929876  1
  Fe  Fe41  1  0.50268758  0.50266062  0.83593279  1
  Fe  Fe42  1  0.50180781  0.83459576  0.50105217  1
  Fe  Fe43  1  0.33552539  0.66892386  0.66877476  1
  Fe  Fe44  1  0.50181143  0.83508028  0.83680712  1
  Fe  Fe45  1  0.83703261  0.17030119  0.50210327  1
  Cr  Cr46  1  0.66939541  1.00219515  0.66943482  1
  Fe  Fe47  1  0.83724245  0.17002646  0.83670607  1
  Fe  Fe48  1  0.83581972  0.50249749  0.50251925  1
  Fe  Fe49  1  0.66980122  0.33734832  0.66929889  1
  Fe  Fe50  1  0.83602927  0.50228793  0.83567902  1
  Fe  Fe51  1  0.83629653  0.83490856  0.50148325  1
  Fe  Fe52  1  0.66982444  0.66719924  0.66877534  1
  Fe  Fe53  1  0.83684367  0.83539196  0.83705249  1
" 