8569,Ni9Fe87Cr2_15,-226.717765401203, 148.620512229756,Ni9Fe87Cr2,"# generated using pymatgen
 data_Cr2Fe47Ni5
_symmetry_space_group_name_H-M   'P 1'
_cell_length_a   7.41695264
_cell_length_b   7.41695264
_cell_length_c   10.48915502
_cell_angle_alpha   90.00000000
_cell_angle_beta   90.00000000
_cell_angle_gamma   90.00000000
_symmetry_Int_Tables_number   1
_chemical_formula_structural   Cr2Fe47Ni5
_chemical_formula_sum   'Cr2 Fe47 Ni5'
_cell_volume   577.02086266
_cell_formula_units_Z   1
loop_
 _symmetry_equiv_pos_site_id
 _symmetry_equiv_pos_as_xyz
  1  'x, y, z'
loop_
 _atom_site_type_symbol
 _atom_site_label
 _atom_site_symmetry_multiplicity
 _atom_site_fract_x
 _atom_site_fract_y
 _atom_site_fract_z
 _atom_site_occupancy
  Fe  Fe0  1  0.00405479  0.00405543  0.00424349  1
  Fe  Fe1  1  0.17027078  0.17021020  0.17033615  1
  Fe  Fe2  1  0.00361276  0.00355169  0.33687823  1
  Fe  Fe3  1  0.00358149  0.33694305  1.00265016  1
  Fe  Fe4  1  0.17030027  0.50314543  0.16983541  1
  Fe  Fe5  1  0.00396025  0.33673988  0.33708023  1
  Fe  Fe6  1  0.00434955  0.66913205  0.00394422  1
  Fe  Fe7  1  0.17001616  0.83677421  0.16995153  1
  Fe  Fe8  1  0.00361296  0.66984128  0.33690650  1
  Fe  Fe9  1  0.33677324  1.00328772  1.00334826  1
  Fe  Fe10  1  0.50314735  0.17030291  0.17030244  1
  Fe  Fe11  1  0.33673867  0.00389782  0.33667638  1
  Fe  Fe12  1  0.33648052  0.33694123  0.00373807  1
  Fe  Fe13  1  0.50321042  0.50314533  0.17053604  1
  Ni  Ni14  1  0.33594618  0.33594436  0.33607174  1
  Fe  Fe15  1  0.33647895  0.66990043  1.00305378  1
  Fe  Fe16  1  0.50340261  0.83668232  0.16991737  1
  Fe  Fe17  1  0.33597071  0.67025739  0.33591030  1
  Fe  Fe18  1  0.66930271  0.00405620  0.00417886  1
  Fe  Fe19  1  0.83671221  0.17001921  0.16988819  1
  Fe  Fe20  1  0.66978033  0.00355140  0.33690557  1
  Fe  Fe21  1  0.67007126  0.33664832  1.00294552  1
  Fe  Fe22  1  0.83662032  0.50340115  0.16998067  1
  Fe  Fe23  1  0.67019826  0.33597108  0.33631372  1
  Fe  Fe24  1  0.66930511  0.66942829  0.00424220  1
  Fe  Fe25  1  0.83671242  0.83671099  0.17031440  1
  Fe  Fe26  1  0.67054563  0.67060707  0.33614401  1
  Fe  Fe27  1  0.16977533  0.17011264  0.50325182  1
  Fe  Fe28  1  1.00335822  0.00481022  0.66900852  1
  Fe  Fe29  1  0.16961385  0.17047355  0.83654179  1
  Fe  Fe30  1  0.16810232  0.50344247  0.50377912  1
  Ni  Ni31  1  1.00247544  0.33714785  0.67000637  1
  Ni  Ni32  1  0.17108892  0.50242816  0.83644565  1
  Fe  Fe33  1  0.16975420  0.83657588  0.50334492  1
  Fe  Fe34  1  0.00365060  0.66835461  0.66927898  1
  Fe  Fe35  1  0.17164187  0.83624597  0.83683453  1
  Fe  Fe36  1  0.50384018  0.16849873  0.50331297  1
  Fe  Fe37  1  0.33680020  0.00428172  0.67010636  1
  Fe  Fe38  1  0.50333529  0.17050628  0.83651685  1
  Cr  Cr39  1  0.50249156  0.50209666  0.50355484  1
  Fe  Fe40  1  0.33573653  0.33619688  0.67054547  1
  Fe  Fe41  1  0.50334397  0.50340697  0.83634692  1
  Fe  Fe42  1  0.50386610  0.83817819  0.50340774  1
  Fe  Fe43  1  0.33574030  0.66964775  0.67116623  1
  Fe  Fe44  1  0.50131018  0.83621723  0.83680577  1
  Fe  Fe45  1  0.83651559  0.17015174  0.50392588  1
  Fe  Fe46  1  0.66997405  0.00480504  0.66904597  1
  Fe  Fe47  1  0.83718229  0.17250330  0.83631928  1
  Fe  Fe48  1  0.83811674  0.50347375  0.50386213  1
  Ni  Ni49  1  0.67180688  0.33601033  0.67108878  1
  Fe  Fe50  1  0.83715454  0.50138850  0.83629033  1
  Ni  Ni51  1  0.83702907  0.83750511  0.50271625  1
  Fe  Fe52  1  0.67074301  0.66941733  0.66974511  1
  Cr  Cr53  1  0.83675804  0.83733789  0.83681917  1
" 