2923,Ni9Fe57Cr33_12,-222.042239526775, 174.015073996553,Ni9Fe57Cr33,"# generated using pymatgen
 data_Cr19(Fe6Ni)5
_symmetry_space_group_name_H-M   'P 1'
_cell_length_a   7.48713556
_cell_length_b   7.48713556
_cell_length_c   10.58840865
_cell_angle_alpha   90.00000000
_cell_angle_beta   90.00000000
_cell_angle_gamma   90.00000000
_symmetry_Int_Tables_number   1
_chemical_formula_structural   Cr19(Fe6Ni)5
_chemical_formula_sum   'Cr19 Fe30 Ni5'
_cell_volume   593.55653008
_cell_formula_units_Z   1
loop_
 _symmetry_equiv_pos_site_id
 _symmetry_equiv_pos_as_xyz
  1  'x, y, z'
loop_
 _atom_site_type_symbol
 _atom_site_label
 _atom_site_symmetry_multiplicity
 _atom_site_fract_x
 _atom_site_fract_y
 _atom_site_fract_z
 _atom_site_occupancy
  Cr  Cr0  1  -0.00044947  0.00052242  0.99539854  1
  Fe  Fe1  1  0.16443246  0.16468819  0.16555823  1
  Fe  Fe2  1  0.00071984  0.99701732  0.33359995  1
  Fe  Fe3  1  -0.00086731  0.33265273  0.99503715  1
  Cr  Cr4  1  0.16273922  0.50007833  0.16427603  1
  Fe  Fe5  1  -0.00124624  0.33245951  0.33455019  1
  Ni  Ni6  1  0.00087454  0.66657157  0.99645461  1
  Fe  Fe7  1  0.16397290  0.83464371  0.16552985  1
  Fe  Fe8  1  0.99851973  0.66712275  0.33204085  1
  Fe  Fe9  1  0.32946917  0.99799896  0.99797842  1
  Cr  Cr10  1  0.49739105  0.16285805  0.16460868  1
  Fe  Fe11  1  0.33165123  0.99803991  0.33399534  1
  Fe  Fe12  1  0.32815715  0.33123103  0.99819859  1
  Fe  Fe13  1  0.49839595  0.49690799  0.16364836  1
  Cr  Cr14  1  0.33032238  0.33220793  0.33370998  1
  Fe  Fe15  1  0.33003162  0.66655736  -0.00092249  1
  Fe  Fe16  1  0.49686039  0.83050611  0.16253752  1
  Cr  Cr17  1  0.33135577  0.66700683  0.33330158  1
  Cr  Cr18  1  0.66651497  0.99781815  0.99654732  1
  Cr  Cr19  1  0.83305329  0.16578838  0.17055931  1
  Fe  Fe20  1  0.66395883  0.99769786  0.33351764  1
  Cr  Cr21  1  0.66582198  0.33180042  0.99530919  1
  Cr  Cr22  1  0.83312767  0.49801779  0.16335826  1
  Ni  Ni23  1  0.66653975  0.33021793  0.33418143  1
  Fe  Fe24  1  0.66787097  0.66624240  0.99850496  1
  Fe  Fe25  1  0.83535158  0.83186247  0.16410345  1
  Cr  Cr26  1  0.66417429  0.66610667  0.32796603  1
  Fe  Fe27  1  0.16370816  0.16357139  0.49838863  1
  Fe  Fe28  1  -0.00029223  0.99563273  0.66614297  1
  Fe  Fe29  1  0.16772381  0.16630057  0.83225893  1
  Fe  Fe30  1  0.16489260  0.50095092  0.50027590  1
  Cr  Cr31  1  0.00053635  0.33064471  0.66641159  1
  Fe  Fe32  1  0.16413167  0.50052999  0.83267800  1
  Ni  Ni33  1  0.16241558  0.83163434  0.49965751  1
  Fe  Fe34  1  0.00089081  0.66756871  0.66626496  1
  Fe  Fe35  1  0.16254403  0.82962100  0.83019878  1
  Cr  Cr36  1  0.50148349  0.16523677  0.50219369  1
  Cr  Cr37  1  0.32952238  0.99791445  0.66552839  1
  Fe  Fe38  1  0.49815697  0.16623981  0.83101411  1
  Cr  Cr39  1  0.49891866  0.49787061  0.50146988  1
  Fe  Fe40  1  0.33079112  0.33330516  0.66634614  1
  Cr  Cr41  1  0.49616394  0.49889843  0.83171105  1
  Fe  Fe42  1  0.49674735  0.83129968  0.49976337  1
  Ni  Ni43  1  0.32816892  0.66438708  0.66401931  1
  Cr  Cr44  1  0.49426751  0.83224902  0.83237470  1
  Fe  Fe45  1  0.83530153  0.16298735  0.49750967  1
  Cr  Cr46  1  0.66959036  -0.00090671  0.66611432  1
  Ni  Ni47  1  0.83457435  0.16610449  0.82869796  1
  Cr  Cr48  1  0.83353749  0.49792978  0.49837758  1
  Fe  Fe49  1  0.66665393  0.33211935  0.66800389  1
  Fe  Fe50  1  0.83461281  0.50029226  0.83261940  1
  Fe  Fe51  1  0.83348509  0.83297596  0.49713376  1
  Cr  Cr52  1  0.66619505  0.66713798  0.66652693  1
  Fe  Fe53  1  0.83409366  0.83044054  0.83232873  1
" 