2752,Ni9Fe62Cr27_14,-223.492766483645, 165.899740515774,Ni9Fe62Cr27,"# generated using pymatgen
 data_Cr16Fe33Ni5
_symmetry_space_group_name_H-M   'P 1'
_cell_length_a   7.49223963
_cell_length_b   7.49223963
_cell_length_c   10.59562690
_cell_angle_alpha   90.00000000
_cell_angle_beta   90.00000000
_cell_angle_gamma   90.00000000
_symmetry_Int_Tables_number   1
_chemical_formula_structural   Cr16Fe33Ni5
_chemical_formula_sum   'Cr16 Fe33 Ni5'
_cell_volume   594.77126246
_cell_formula_units_Z   1
loop_
 _symmetry_equiv_pos_site_id
 _symmetry_equiv_pos_as_xyz
  1  'x, y, z'
loop_
 _atom_site_type_symbol
 _atom_site_label
 _atom_site_symmetry_multiplicity
 _atom_site_fract_x
 _atom_site_fract_y
 _atom_site_fract_z
 _atom_site_occupancy
  Fe  Fe0  1  0.99815577  0.99512822  -0.00050985  1
  Cr  Cr1  1  0.16402187  0.16565100  0.16265721  1
  Ni  Ni2  1  0.99676506  -0.00070983  0.33146731  1
  Fe  Fe3  1  0.99728285  0.33351878  -0.00099919  1
  Fe  Fe4  1  0.16341214  0.49934413  0.16451431  1
  Fe  Fe5  1  0.99585289  0.33121148  0.33258948  1
  Fe  Fe6  1  -0.00061415  0.66607144  -0.00124668  1
  Cr  Cr7  1  0.16439554  0.83046874  0.16434473  1
  Fe  Fe8  1  -0.00120662  0.66605225  0.33187315  1
  Ni  Ni9  1  0.33070881  0.99831779  0.99759201  1
  Fe  Fe10  1  0.49911117  0.16434981  0.16483932  1
  Cr  Cr11  1  0.33141851  0.99759317  0.33266931  1
  Fe  Fe12  1  0.33465463  0.33259736  -0.00062924  1
  Fe  Fe13  1  0.49686410  0.49835876  0.16457817  1
  Cr  Cr14  1  0.33034020  0.33291819  0.33325571  1
  Fe  Fe15  1  0.33177937  0.66601757  0.99707132  1
  Fe  Fe16  1  0.49743043  0.83181711  0.16473625  1
  Fe  Fe17  1  0.32970390  0.66517785  0.33300453  1
  Cr  Cr18  1  0.66360371  0.99617100  0.00117228  1
  Fe  Fe19  1  0.83176649  0.16377387  0.16598123  1
  Fe  Fe20  1  0.66686386  -0.00071707  0.33142562  1
  Fe  Fe21  1  0.66298720  0.33077501  -0.00023650  1
  Fe  Fe22  1  0.83448931  0.49774369  0.16497960  1
  Fe  Fe23  1  0.66649098  0.32892786  0.33134251  1
  Cr  Cr24  1  0.66609591  0.66303917  0.99763251  1
  Ni  Ni25  1  0.83183202  0.83109182  0.16741591  1
  Cr  Cr26  1  0.66375055  0.66406117  0.32955394  1
  Fe  Fe27  1  0.16311063  0.16509360  0.49629003  1
  Cr  Cr28  1  -0.00049843  -0.00100026  0.66392427  1
  Cr  Cr29  1  0.16688663  0.16539400  0.83424072  1
  Fe  Fe30  1  0.16393542  0.50037172  0.49694770  1
  Cr  Cr31  1  0.00082583  0.33397340  0.66323332  1
  Fe  Fe32  1  0.16429519  0.50000328  0.83359805  1
  Fe  Fe33  1  0.16255411  0.83039919  0.49664628  1
  Fe  Fe34  1  -0.00052220  0.66606137  0.66395226  1
  Ni  Ni35  1  0.16623595  0.82915112  0.83342559  1
  Fe  Fe36  1  0.50063601  0.16505828  0.49823466  1
  Cr  Cr37  1  0.33136916  -0.00102265  0.66433374  1
  Fe  Fe38  1  0.49787346  0.16302157  0.83246710  1
  Fe  Fe39  1  0.49884479  0.49830778  0.49772804  1
  Fe  Fe40  1  0.33347160  0.33150127  0.66317805  1
  Fe  Fe41  1  0.49510319  0.49671378  0.83337789  1
  Fe  Fe42  1  0.49997240  0.83191219  0.49781008  1
  Cr  Cr43  1  0.33141305  0.66486378  0.66495019  1
  Fe  Fe44  1  0.49646507  0.83447479  0.83213386  1
  Fe  Fe45  1  0.83044158  0.16382211  0.49693642  1
  Ni  Ni46  1  0.66346647  0.99815130  0.66207769  1
  Cr  Cr47  1  0.82953890  0.16442047  0.83337062  1
  Fe  Fe48  1  0.83232980  0.49916992  0.49658413  1
  Cr  Cr49  1  0.66608576  0.33294669  0.66658260  1
  Fe  Fe50  1  0.83590747  0.49814762  0.83347260  1
  Fe  Fe51  1  0.83168993  0.83277805  0.49645403  1
  Cr  Cr52  1  0.66602208  0.66510180  0.66738052  1
  Cr  Cr53  1  0.83380446  0.83164828  0.82880937  1
" 