5804,Ni9Fe87Cr2_10,-226.931715165745, 150.289655975361,Ni9Fe87Cr2,"# generated using pymatgen
 data_Cr2Fe47Ni5
_symmetry_space_group_name_H-M   'P 1'
_cell_length_a   7.41704579
_cell_length_b   7.41704579
_cell_length_c   10.48928675
_cell_angle_alpha   90.00000000
_cell_angle_beta   90.00000000
_cell_angle_gamma   90.00000000
_symmetry_Int_Tables_number   1
_chemical_formula_structural   Cr2Fe47Ni5
_chemical_formula_sum   'Cr2 Fe47 Ni5'
_cell_volume   577.04260373
_cell_formula_units_Z   1
loop_
 _symmetry_equiv_pos_site_id
 _symmetry_equiv_pos_as_xyz
  1  'x, y, z'
loop_
 _atom_site_type_symbol
 _atom_site_label
 _atom_site_symmetry_multiplicity
 _atom_site_fract_x
 _atom_site_fract_y
 _atom_site_fract_z
 _atom_site_occupancy
  Fe  Fe0  1  1.00264331  1.00280713  0.00385864  1
  Ni  Ni1  1  0.16966111  0.16924475  0.17002274  1
  Fe  Fe2  1  0.00384412  0.00337470  0.33624949  1
  Fe  Fe3  1  1.00251567  0.33616046  0.00394080  1
  Fe  Fe4  1  0.16999333  0.50274436  0.16998575  1
  Fe  Fe5  1  0.00386120  0.33636419  0.33625454  1
  Fe  Fe6  1  1.00248775  0.67114073  0.00364386  1
  Fe  Fe7  1  0.17011245  0.83734501  0.17035037  1
  Fe  Fe8  1  0.00349789  0.67031262  0.33659558  1
  Fe  Fe9  1  0.33714093  1.00288386  1.00328813  1
  Fe  Fe10  1  0.50304338  0.16942349  0.16984783  1
  Fe  Fe11  1  0.33619722  0.00354537  0.33702465  1
  Fe  Fe12  1  0.33679203  0.33535762  0.00498514  1
  Fe  Fe13  1  0.50293128  0.50309542  0.16932048  1
  Fe  Fe14  1  0.33633868  0.33635123  0.33599480  1
  Fe  Fe15  1  0.33679504  0.67218263  0.00386369  1
  Fe  Fe16  1  0.50320568  0.83765877  0.16937979  1
  Fe  Fe17  1  0.33661356  0.67019495  0.33739558  1
  Ni  Ni18  1  0.66990282  1.00335796  1.00331315  1
  Fe  Fe19  1  0.83696555  0.16952069  0.16986321  1
  Fe  Fe20  1  0.66998894  1.00318687  0.33581870  1
  Fe  Fe21  1  0.67096666  0.33601113  0.00386907  1
  Fe  Fe22  1  0.83728293  0.50285843  0.16990108  1
  Fe  Fe23  1  0.66987989  0.33678687  0.33738430  1
  Ni  Ni24  1  0.67061843  0.67074738  0.00434806  1
  Fe  Fe25  1  0.83685872  0.83782045  0.16948743  1
  Fe  Fe26  1  0.66998400  0.67014906  0.33552996  1
  Fe  Fe27  1  0.17022692  0.16935299  0.50253747  1
  Fe  Fe28  1  0.00413748  1.00313580  0.67007355  1
  Fe  Fe29  1  0.17069948  0.16996744  0.83760100  1
  Fe  Fe30  1  0.17009448  0.50374658  0.50337048  1
  Fe  Fe31  1  0.00696807  0.33645936  0.66997414  1
  Fe  Fe32  1  0.16863138  0.50394398  0.83651772  1
  Fe  Fe33  1  0.17014713  0.83707523  0.50358344  1
  Fe  Fe34  1  0.00375895  0.67057094  0.66987650  1
  Fe  Fe35  1  0.17077821  0.83628505  0.83610100  1
  Fe  Fe36  1  0.50209600  0.16838453  0.50284648  1
  Ni  Ni37  1  0.33594573  1.00289910  0.67010810  1
  Fe  Fe38  1  0.50224016  0.16741380  0.83729461  1
  Fe  Fe39  1  0.50208186  0.50474182  0.50326505  1
  Fe  Fe40  1  0.33476295  0.33592629  0.66915009  1
  Cr  Cr41  1  0.50270351  0.50477947  0.83683346  1
  Fe  Fe42  1  0.50280395  0.83700843  0.50364182  1
  Ni  Ni43  1  0.33539888  0.67115698  0.66934660  1
  Fe  Fe44  1  0.50314804  0.83830595  0.83684928  1
  Fe  Fe45  1  0.83795153  0.16858162  0.50222270  1
  Fe  Fe46  1  0.66875516  1.00092135  0.67070034  1
  Fe  Fe47  1  0.83744499  0.16887975  0.83792439  1
  Fe  Fe48  1  0.83793591  0.50452973  0.50221852  1
  Cr  Cr49  1  0.67192126  0.33604368  0.67022216  1
  Fe  Fe50  1  0.83916969  0.50473752  0.83801454  1
  Fe  Fe51  1  0.83679001  0.83696518  0.50288880  1
  Fe  Fe52  1  0.66941607  0.67316335  0.66977868  1
  Fe  Fe53  1  0.83588936  0.83641770  0.83756203  1
" 