8484,Ni9Fe87Cr2_2,-226.734314759352, 147.744018327361,Ni9Fe87Cr2,"# generated using pymatgen
 data_Cr2Fe47Ni5
_symmetry_space_group_name_H-M   'P 1'
_cell_length_a   7.41717656
_cell_length_b   7.41717656
_cell_length_c   10.48947169
_cell_angle_alpha   90.00000000
_cell_angle_beta   90.00000000
_cell_angle_gamma   90.00000000
_symmetry_Int_Tables_number   1
_chemical_formula_structural   Cr2Fe47Ni5
_chemical_formula_sum   'Cr2 Fe47 Ni5'
_cell_volume   577.07312640
_cell_formula_units_Z   1
loop_
 _symmetry_equiv_pos_site_id
 _symmetry_equiv_pos_as_xyz
  1  'x, y, z'
loop_
 _atom_site_type_symbol
 _atom_site_label
 _atom_site_symmetry_multiplicity
 _atom_site_fract_x
 _atom_site_fract_y
 _atom_site_fract_z
 _atom_site_occupancy
  Fe  Fe0  1  0.00343499  1.00333327  0.00340714  1
  Fe  Fe1  1  0.17002667  0.17003115  0.17060199  1
  Ni  Ni2  1  1.00251878  1.00265030  0.33641462  1
  Fe  Fe3  1  1.00300367  0.33715509  1.00297796  1
  Fe  Fe4  1  0.17053705  0.50307884  0.17023798  1
  Fe  Fe5  1  0.00365368  0.33650597  0.33692833  1
  Fe  Fe6  1  1.00311318  0.66959727  1.00281398  1
  Fe  Fe7  1  0.16966732  0.83697668  0.17023687  1
  Fe  Fe8  1  0.00367941  0.66967274  0.33716756  1
  Fe  Fe9  1  0.33684695  1.00325758  1.00325268  1
  Fe  Fe10  1  0.50307871  0.17038963  0.17023815  1
  Fe  Fe11  1  0.33619948  0.00390628  0.33665522  1
  Fe  Fe12  1  0.33669525  0.33664803  0.00397304  1
  Fe  Fe13  1  0.50293009  0.50308229  0.17031306  1
  Ni  Ni14  1  0.33774957  0.33776753  0.33666414  1
  Fe  Fe15  1  0.33666167  0.67018013  1.00309262  1
  Fe  Fe16  1  0.50343716  0.83661744  0.16987865  1
  Fe  Fe17  1  0.33609729  0.67010887  0.33689028  1
  Fe  Fe18  1  0.66980313  0.00336672  0.00344091  1
  Fe  Fe19  1  0.83698062  0.16952007  0.17023624  1
  Fe  Fe20  1  0.66987579  0.00393145  0.33654256  1
  Fe  Fe21  1  0.67038606  0.33696943  1.00301192  1
  Fe  Fe22  1  0.83662182  0.50343712  0.16987868  1
  Fe  Fe23  1  0.67031259  0.33640280  0.33696959  1
  Fe  Fe24  1  0.67031019  0.66974918  1.00301862  1
  Fe  Fe25  1  0.83697792  0.83712562  0.17031222  1
  Fe  Fe26  1  0.67030848  0.66975101  0.33703807  1
  Fe  Fe27  1  0.16917800  0.17030925  0.50313408  1
  Ni  Ni28  1  1.00225047  0.00513034  0.67084893  1
  Fe  Fe29  1  0.16918429  0.17031616  0.83635204  1
  Fe  Fe30  1  0.16997023  0.50130570  0.50123251  1
  Fe  Fe31  1  1.00295684  0.33525435  0.67017879  1
  Fe  Fe32  1  0.16961298  0.50158694  0.83861707  1
  Fe  Fe33  1  0.16881973  0.83847346  0.50166767  1
  Cr  Cr34  1  1.00178518  0.67102304  0.66995054  1
  Fe  Fe35  1  0.16918111  0.83818459  0.83818538  1
  Fe  Fe36  1  0.50360929  0.17102727  0.50311192  1
  Fe  Fe37  1  0.33596818  0.00481624  0.67017795  1
  Fe  Fe38  1  0.50389255  0.17067079  0.83673553  1
  Fe  Fe39  1  0.50445524  0.50222044  0.50214602  1
  Fe  Fe40  1  0.33589420  0.33443380  0.66946042  1
  Fe  Fe41  1  0.50473604  0.50250006  0.83762677  1
  Fe  Fe42  1  0.50489055  0.83683816  0.50258129  1
  Cr  Cr43  1  0.33814888  0.66852434  0.66994968  1
  Fe  Fe44  1  0.50481635  0.83691044  0.83762486  1
  Fe  Fe45  1  0.83729495  0.16986922  0.50339080  1
  Fe  Fe46  1  0.67035817  1.00289016  0.67010226  1
  Fe  Fe47  1  0.83700482  0.17023611  0.83646096  1
  Ni  Ni48  1  0.83592531  0.50277640  0.50224364  1
  Fe  Fe49  1  0.67123164  0.33716639  0.67010318  1
  Ni  Ni50  1  0.83585066  0.50285487  0.83766109  1
  Fe  Fe51  1  0.83637198  0.83763445  0.50242753  1
  Fe  Fe52  1  0.67115995  0.67002984  0.67002795  1
  Fe  Fe53  1  0.83608543  0.83734521  0.83734860  1
" 