8275,Ni9Fe62Cr27_16,-223.153740812862, 169.289282439533,Ni9Fe62Cr27,"# generated using pymatgen
 data_Cr16Fe33Ni5
_symmetry_space_group_name_H-M   'P 1'
_cell_length_a   7.48017518
_cell_length_b   7.48017518
_cell_length_c   10.57856518
_cell_angle_alpha   90.00000000
_cell_angle_beta   90.00000000
_cell_angle_gamma   90.00000000
_symmetry_Int_Tables_number   1
_chemical_formula_structural   Cr16Fe33Ni5
_chemical_formula_sum   'Cr16 Fe33 Ni5'
_cell_volume   591.90267646
_cell_formula_units_Z   1
loop_
 _symmetry_equiv_pos_site_id
 _symmetry_equiv_pos_as_xyz
  1  'x, y, z'
loop_
 _atom_site_type_symbol
 _atom_site_label
 _atom_site_symmetry_multiplicity
 _atom_site_fract_x
 _atom_site_fract_y
 _atom_site_fract_z
 _atom_site_occupancy
  Fe  Fe0  1  0.99832679  -0.00082951  -0.00047110  1
  Cr  Cr1  1  0.16650600  0.16645872  0.16911353  1
  Fe  Fe2  1  -0.00035996  0.99725404  0.33312570  1
  Cr  Cr3  1  0.99541613  0.33047139  0.00039941  1
  Fe  Fe4  1  0.16748458  0.49848145  0.16643832  1
  Fe  Fe5  1  0.99849117  0.33383522  0.33213876  1
  Cr  Cr6  1  0.00110937  0.66585670  0.00048335  1
  Fe  Fe7  1  0.16583664  0.83351379  0.16729177  1
  Fe  Fe8  1  0.99631462  0.66637584  0.33176704  1
  Cr  Cr9  1  0.33319740  0.99754947  0.99825739  1
  Ni  Ni10  1  0.49918132  0.16560072  0.16628524  1
  Fe  Fe11  1  0.33180960  0.00093766  0.33308944  1
  Fe  Fe12  1  0.33474681  0.33161594  -0.00043734  1
  Fe  Fe13  1  0.49877452  0.49777028  0.16368708  1
  Fe  Fe14  1  0.33439114  0.33156341  0.33255897  1
  Fe  Fe15  1  0.33503653  0.66417517  -0.00020387  1
  Fe  Fe16  1  0.50005107  0.83314912  0.16528812  1
  Cr  Cr17  1  0.33244642  0.66695633  0.33090235  1
  Fe  Fe18  1  0.66656008  0.00141383  0.00001731  1
  Fe  Fe19  1  0.83078811  0.16454132  0.16579066  1
  Cr  Cr20  1  0.66527004  -0.00009210  0.33244934  1
  Fe  Fe21  1  0.66229770  0.33096289  -0.00021639  1
  Fe  Fe22  1  0.83106580  0.49925927  0.16684246  1
  Cr  Cr23  1  0.66648622  0.33370358  0.33265494  1
  Fe  Fe24  1  0.66397205  0.66542723  -0.00055380  1
  Fe  Fe25  1  0.83152060  0.83381972  0.16514692  1
  Fe  Fe26  1  0.66806391  0.66512718  0.33242362  1
  Fe  Fe27  1  0.16543690  0.16501810  0.49731686  1
  Fe  Fe28  1  0.00030976  0.99839280  0.66523240  1
  Fe  Fe29  1  0.16595205  0.16606178  0.83215149  1
  Cr  Cr30  1  0.16546806  0.49806423  0.49910778  1
  Fe  Fe31  1  -0.00049910  0.33156967  0.66578721  1
  Cr  Cr32  1  0.16722852  0.49821859  0.83308936  1
  Ni  Ni33  1  0.16433154  0.83318681  0.49770585  1
  Fe  Fe34  1  -0.00002844  0.66760302  0.66371932  1
  Fe  Fe35  1  0.16617136  0.83409054  0.83229604  1
  Fe  Fe36  1  0.49665618  0.16908377  0.49925249  1
  Cr  Cr37  1  0.33168801  0.00005473  0.66450049  1
  Ni  Ni38  1  0.49988992  0.16575705  0.83209461  1
  Fe  Fe39  1  0.49912060  0.49771459  0.49945212  1
  Fe  Fe40  1  0.33520036  0.33190806  0.66672437  1
  Ni  Ni41  1  0.49894170  0.49604985  0.83457058  1
  Cr  Cr42  1  0.50018391  0.83475585  0.49771753  1
  Cr  Cr43  1  0.33259342  0.66691015  0.66919905  1
  Fe  Fe44  1  0.50079677  0.83128314  0.83341240  1
  Cr  Cr45  1  0.83216888  0.16530141  0.50164570  1
  Fe  Fe46  1  0.66450862  0.00096807  0.66644420  1
  Fe  Fe47  1  0.83002379  0.16679966  0.83100660  1
  Ni  Ni48  1  0.83398968  0.49909232  0.49878407  1
  Fe  Fe49  1  0.66260141  0.33141307  0.66554885  1
  Cr  Cr50  1  0.83108326  0.49935849  0.83032302  1
  Fe  Fe51  1  0.83606786  0.83084081  0.49891124  1
  Cr  Cr52  1  0.66571370  0.66343844  0.66187843  1
  Cr  Cr53  1  0.83223211  0.83478185  0.83047419  1
" 