8949,Ni9Fe87Cr2_1,-227.025601243117, 151.097778845183,Ni9Fe87Cr2,"# generated using pymatgen
 data_Cr2Fe47Ni5
_symmetry_space_group_name_H-M   'P 1'
_cell_length_a   7.41937815
_cell_length_b   7.41937815
_cell_length_c   10.49258520
_cell_angle_alpha   90.00000000
_cell_angle_beta   90.00000000
_cell_angle_gamma   90.00000000
_symmetry_Int_Tables_number   1
_chemical_formula_structural   Cr2Fe47Ni5
_chemical_formula_sum   'Cr2 Fe47 Ni5'
_cell_volume   577.58714389
_cell_formula_units_Z   1
loop_
 _symmetry_equiv_pos_site_id
 _symmetry_equiv_pos_as_xyz
  1  'x, y, z'
loop_
 _atom_site_type_symbol
 _atom_site_label
 _atom_site_symmetry_multiplicity
 _atom_site_fract_x
 _atom_site_fract_y
 _atom_site_fract_z
 _atom_site_occupancy
  Fe  Fe0  1  0.00404588  1.00293915  1.00293306  1
  Fe  Fe1  1  0.17000719  0.17011107  0.16928463  1
  Fe  Fe2  1  0.00352096  1.00234949  0.33625050  1
  Fe  Fe3  1  0.00411986  0.33685041  1.00289078  1
  Fe  Fe4  1  0.16845141  0.50356659  0.16952636  1
  Fe  Fe5  1  0.00351996  0.33743131  0.33551414  1
  Fe  Fe6  1  0.00369229  0.66984830  0.00331780  1
  Fe  Fe7  1  0.17046381  0.83596121  0.17015799  1
  Fe  Fe8  1  1.00255913  0.66985351  0.33717775  1
  Fe  Fe9  1  0.33629617  1.00294093  1.00296336  1
  Fe  Fe10  1  0.50366483  0.16844732  0.17033421  1
  Fe  Fe11  1  0.33684712  0.00366088  0.33682860  1
  Fe  Fe12  1  0.33533693  0.33596753  1.00200412  1
  Cr  Cr13  1  0.50303518  0.50338983  0.16925624  1
  Fe  Fe14  1  0.33631390  0.33558581  0.33743344  1
  Ni  Ni15  1  0.33530157  0.67105107  1.00196742  1
  Fe  Fe16  1  0.50285846  0.83797364  0.16938036  1
  Fe  Fe17  1  0.33596349  0.67038985  0.33705448  1
  Fe  Fe18  1  0.66929459  1.00251343  0.00324471  1
  Fe  Fe19  1  0.83596678  0.17045801  0.17038473  1
  Fe  Fe20  1  0.66927039  1.00269853  0.33586513  1
  Fe  Fe21  1  0.67018169  0.33631496  1.00298354  1
  Fe  Fe22  1  0.83797765  0.50276029  0.17018786  1
  Ni  Ni23  1  0.67022949  0.33626866  0.33689241  1
  Fe  Fe24  1  0.67017841  0.67080908  1.00228184  1
  Fe  Fe25  1  0.83631378  0.83641789  0.17039353  1
  Fe  Fe26  1  0.67111435  0.67038670  0.33770743  1
  Fe  Fe27  1  0.17103347  0.16868865  0.50384122  1
  Fe  Fe28  1  0.00435283  1.00207440  0.67045489  1
  Ni  Ni29  1  0.16960374  0.16985962  0.83619685  1
  Fe  Fe30  1  0.16912688  0.50423987  0.50318066  1
  Fe  Fe31  1  0.00442194  0.33712296  0.67123274  1
  Fe  Fe32  1  0.17018832  0.50285861  0.83692798  1
  Ni  Ni33  1  0.16953670  0.83618761  0.50351353  1
  Fe  Fe34  1  1.00303755  0.67043681  0.66914270  1
  Fe  Fe35  1  0.17022859  0.83682945  0.83633893  1
  Fe  Fe36  1  0.50185198  0.16907721  0.50283227  1
  Fe  Fe37  1  0.33598445  0.00338952  0.66984551  1
  Fe  Fe38  1  0.50275600  0.16991050  0.83647174  1
  Fe  Fe39  1  0.50371666  0.50381398  0.50270574  1
  Fe  Fe40  1  0.33626495  0.33616037  0.67019791  1
  Fe  Fe41  1  0.50238021  0.50293803  0.83705628  1
  Fe  Fe42  1  0.50336398  0.83674590  0.50325364  1
  Fe  Fe43  1  0.33633799  0.67008713  0.67015085  1
  Fe  Fe44  1  0.50237994  0.83679020  0.83700081  1
  Cr  Cr45  1  0.83667502  0.16914014  0.50368055  1
  Fe  Fe46  1  0.66930021  1.00200208  0.67052950  1
  Fe  Fe47  1  0.83710584  0.16995131  0.83638638  1
  Fe  Fe48  1  0.83679340  0.50574736  0.50290539  1
  Fe  Fe49  1  0.66894884  0.33747600  0.67017902  1
  Fe  Fe50  1  0.83706766  0.50248204  0.83654482  1
  Ni  Ni51  1  0.83720216  0.83515757  0.50308738  1
  Fe  Fe52  1  0.67026231  0.67015790  0.66964386  1
  Fe  Fe53  1  0.83702794  0.83720416  0.83595728  1
" 