633,Ni9Fe62Cr27_6,-222.953594704904, 164.7009987745,Ni9Fe62Cr27,"# generated using pymatgen
 data_Cr16Fe33Ni5
_symmetry_space_group_name_H-M   'P 1'
_cell_length_a   7.48576700
_cell_length_b   7.48576700
_cell_length_c   10.58647322
_cell_angle_alpha   90.00000000
_cell_angle_beta   90.00000000
_cell_angle_gamma   90.00000000
_symmetry_Int_Tables_number   1
_chemical_formula_structural   Cr16Fe33Ni5
_chemical_formula_sum   'Cr16 Fe33 Ni5'
_cell_volume   593.23110372
_cell_formula_units_Z   1
loop_
 _symmetry_equiv_pos_site_id
 _symmetry_equiv_pos_as_xyz
  1  'x, y, z'
loop_
 _atom_site_type_symbol
 _atom_site_label
 _atom_site_symmetry_multiplicity
 _atom_site_fract_x
 _atom_site_fract_y
 _atom_site_fract_z
 _atom_site_occupancy
  Fe  Fe0  1  -0.00028966  0.00085397  0.99588636  1
  Fe  Fe1  1  0.16822226  0.16466031  0.16300962  1
  Cr  Cr2  1  0.99799827  0.00119794  0.33205317  1
  Fe  Fe3  1  0.99856834  0.32838185  0.99703248  1
  Cr  Cr4  1  0.16650196  0.49701930  0.16267277  1
  Cr  Cr5  1  -0.00095604  0.32958518  0.33310282  1
  Fe  Fe6  1  0.99849489  0.66686611  0.99634140  1
  Cr  Cr7  1  0.16648256  0.83353512  0.16146591  1
  Cr  Cr8  1  -0.00083855  0.66539299  0.33682976  1
  Fe  Fe9  1  0.33266788  -0.00036155  0.99807393  1
  Ni  Ni10  1  0.49742644  0.16524149  0.16853801  1
  Fe  Fe11  1  0.33408928  0.00091093  0.33202430  1
  Fe  Fe12  1  0.33315982  0.32908917  0.99849352  1
  Fe  Fe13  1  0.49824384  0.49830202  0.16623868  1
  Fe  Fe14  1  0.33306236  0.32861335  0.33191437  1
  Fe  Fe15  1  0.33373771  0.66756028  0.99783739  1
  Ni  Ni16  1  0.49828380  0.83526931  0.16767454  1
  Cr  Cr17  1  0.33453476  0.66663159  0.33132337  1
  Cr  Cr18  1  0.66535554  -0.00069934  -0.00069701  1
  Fe  Fe19  1  0.83070356  0.16485479  0.16458781  1
  Fe  Fe20  1  0.66256678  -0.00059028  0.33181795  1
  Cr  Cr21  1  0.66529549  0.33051427  0.99685320  1
  Cr  Cr22  1  0.83164229  0.49809971  0.16601993  1
  Fe  Fe23  1  0.66404022  0.32991222  0.33128944  1
  Cr  Cr24  1  0.66173926  0.66654587  0.99805412  1
  Cr  Cr25  1  0.83110693  0.83296532  0.16570036  1
  Fe  Fe26  1  0.66503987  0.66692639  0.33215810  1
  Fe  Fe27  1  0.16745308  0.16376642  0.49954053  1
  Fe  Fe28  1  -0.00014003  0.99775849  0.66670367  1
  Ni  Ni29  1  0.16467391  0.16178055  0.83417600  1
  Fe  Fe30  1  0.16480760  0.49860311  0.49904646  1
  Cr  Cr31  1  0.99741076  0.33045817  0.66419756  1
  Cr  Cr32  1  0.16518156  0.49972922  0.83499426  1
  Fe  Fe33  1  0.16582472  0.83391397  0.50090074  1
  Fe  Fe34  1  0.99749202  0.66771774  0.66487208  1
  Ni  Ni35  1  0.16483416  0.83441668  0.83252246  1
  Fe  Fe36  1  0.49958697  0.16289307  0.49729054  1
  Fe  Fe37  1  0.33081653  -0.00089677  0.66647828  1
  Fe  Fe38  1  0.49686055  0.16382870  0.83198068  1
  Cr  Cr39  1  0.50082355  0.49641735  0.49678761  1
  Cr  Cr40  1  0.33210719  0.32983242  0.66576644  1
  Fe  Fe41  1  0.49931664  0.49787143  0.83144939  1
  Fe  Fe42  1  0.50045117  0.83502390  0.49815542  1
  Cr  Cr43  1  0.33222993  0.66826609  0.66618306  1
  Fe  Fe44  1  0.49675115  0.83460539  0.83203608  1
  Fe  Fe45  1  0.82894551  0.16459709  0.50037599  1
  Fe  Fe46  1  0.66547435  -0.00045283  0.66625885  1
  Ni  Ni47  1  0.83198736  0.16454126  0.83093124  1
  Fe  Fe48  1  0.83094572  0.49930636  0.49943725  1
  Fe  Fe49  1  0.66601772  0.33106713  0.66708189  1
  Fe  Fe50  1  0.83292024  0.49858748  0.83149557  1
  Fe  Fe51  1  0.82989385  0.83230876  0.50023689  1
  Fe  Fe52  1  0.66743044  0.66556946  0.66643620  1
  Fe  Fe53  1  0.83550555  0.83369313  0.83085061  1
" 