6199,Ni9Fe87Cr2_14,-227.001172321498, 149.001826102794,Ni9Fe87Cr2,"# generated using pymatgen
 data_Cr2Fe47Ni5
_symmetry_space_group_name_H-M   'P 1'
_cell_length_a   7.41867363
_cell_length_b   7.41867363
_cell_length_c   10.49158886
_cell_angle_alpha   90.00000000
_cell_angle_beta   90.00000000
_cell_angle_gamma   90.00000000
_symmetry_Int_Tables_number   1
_chemical_formula_structural   Cr2Fe47Ni5
_chemical_formula_sum   'Cr2 Fe47 Ni5'
_cell_volume   577.42262222
_cell_formula_units_Z   1
loop_
 _symmetry_equiv_pos_site_id
 _symmetry_equiv_pos_as_xyz
  1  'x, y, z'
loop_
 _atom_site_type_symbol
 _atom_site_label
 _atom_site_symmetry_multiplicity
 _atom_site_fract_x
 _atom_site_fract_y
 _atom_site_fract_z
 _atom_site_occupancy
  Fe  Fe0  1  1.00300601  1.00256888  1.00288399  1
  Fe  Fe1  1  0.16999387  0.16995474  0.16982993  1
  Fe  Fe2  1  0.00326080  1.00274718  0.33645904  1
  Fe  Fe3  1  1.00268707  0.33545008  0.00484577  1
  Fe  Fe4  1  0.16970934  0.50338404  0.17051573  1
  Fe  Fe5  1  1.00325966  0.33761486  0.33710078  1
  Fe  Fe6  1  1.00300797  0.67176522  0.00509741  1
  Fe  Fe7  1  0.16967095  0.83644207  0.16964878  1
  Ni  Ni8  1  1.00319193  0.66972480  0.33672585  1
  Fe  Fe9  1  0.33681923  1.00250395  1.00298117  1
  Fe  Fe10  1  0.50319335  0.16992536  0.16999923  1
  Fe  Fe11  1  0.33615202  1.00275146  0.33652862  1
  Fe  Fe12  1  0.33795736  0.33633790  0.00409184  1
  Fe  Fe13  1  0.50351110  0.50344681  0.16941543  1
  Fe  Fe14  1  0.33583263  0.33729129  0.33678144  1
  Fe  Fe15  1  0.33770240  0.67094430  0.00370750  1
  Fe  Fe16  1  0.50357883  0.83640892  0.16967857  1
  Fe  Fe17  1  0.33575804  0.66973780  0.33684887  1
  Fe  Fe18  1  0.66995733  1.00282386  0.00329772  1
  Fe  Fe19  1  0.83659359  0.16988704  0.16983199  1
  Fe  Fe20  1  0.67036806  1.00282080  0.33659604  1
  Fe  Fe21  1  0.66913460  0.33633416  0.00402344  1
  Fe  Fe22  1  0.83655930  0.50377017  0.17012931  1
  Fe  Fe23  1  0.67068804  0.33722259  0.33684779  1
  Ni  Ni24  1  0.66916716  0.67045141  0.00371599  1
  Fe  Fe25  1  0.83653009  0.83612405  0.16990317  1
  Fe  Fe26  1  0.67069361  0.66973602  0.33627551  1
  Fe  Fe27  1  0.16948864  0.17103518  0.50328863  1
  Fe  Fe28  1  0.00351204  1.00307325  0.67043865  1
  Fe  Fe29  1  0.16971498  0.16799674  0.83666208  1
  Ni  Ni30  1  0.16874547  0.50342930  0.50299088  1
  Fe  Fe31  1  1.00319268  0.33545787  0.66783709  1
  Cr  Cr32  1  0.17043076  0.50437488  0.83690196  1
  Fe  Fe33  1  0.16916594  0.83529597  0.50353894  1
  Fe  Fe34  1  0.00357789  0.67125292  0.66752000  1
  Ni  Ni35  1  0.17078768  0.83855465  0.83684929  1
  Fe  Fe36  1  0.50325929  0.17093664  0.50325613  1
  Fe  Fe37  1  0.33637952  1.00300778  0.67027199  1
  Fe  Fe38  1  0.50268914  0.16984574  0.83652549  1
  Fe  Fe39  1  0.50326049  0.50319639  0.50338663  1
  Fe  Fe40  1  0.33719376  0.33602497  0.66890879  1
  Fe  Fe41  1  0.50300631  0.50401800  0.83697864  1
  Fe  Fe42  1  0.50332845  0.83564794  0.50325837  1
  Fe  Fe43  1  0.33687607  0.67075328  0.66922657  1
  Fe  Fe44  1  0.50301287  0.83591816  0.83684398  1
  Fe  Fe45  1  0.83703287  0.17096688  0.50335606  1
  Fe  Fe46  1  0.66989135  0.00339257  0.66988720  1
  Fe  Fe47  1  0.83737659  0.16798487  0.83659263  1
  Ni  Ni48  1  0.83751888  0.50310615  0.50266879  1
  Fe  Fe49  1  0.66939273  0.33595583  0.66890902  1
  Cr  Cr50  1  0.83556202  0.50316233  0.83683785  1
  Fe  Fe51  1  0.83728602  0.83529282  0.50296560  1
  Fe  Fe52  1  0.66932706  0.67043123  0.66948089  1
  Fe  Fe53  1  0.83706152  0.83777328  0.83691229  1
" 