5149,Ni9Fe62Cr27_7,-223.010153132973, 167.292895815972,Ni9Fe62Cr27,"# generated using pymatgen
 data_Cr16Fe33Ni5
_symmetry_space_group_name_H-M   'P 1'
_cell_length_a   7.47905165
_cell_length_b   7.47905165
_cell_length_c   10.57697628
_cell_angle_alpha   90.00000000
_cell_angle_beta   90.00000000
_cell_angle_gamma   90.00000000
_symmetry_Int_Tables_number   1
_chemical_formula_structural   Cr16Fe33Ni5
_chemical_formula_sum   'Cr16 Fe33 Ni5'
_cell_volume   591.63600477
_cell_formula_units_Z   1
loop_
 _symmetry_equiv_pos_site_id
 _symmetry_equiv_pos_as_xyz
  1  'x, y, z'
loop_
 _atom_site_type_symbol
 _atom_site_label
 _atom_site_symmetry_multiplicity
 _atom_site_fract_x
 _atom_site_fract_y
 _atom_site_fract_z
 _atom_site_occupancy
  Fe  Fe0  1  0.00108112  -0.00010550  0.99907603  1
  Ni  Ni1  1  0.16540626  0.16477409  0.16277567  1
  Fe  Fe2  1  -0.00064879  0.99891123  0.33261263  1
  Fe  Fe3  1  0.00162267  0.33193821  0.99836094  1
  Cr  Cr4  1  0.16660682  0.49934776  0.16716457  1
  Cr  Cr5  1  -0.00019490  0.32975321  0.33276337  1
  Cr  Cr6  1  -0.00025625  0.66683386  0.99875032  1
  Fe  Fe7  1  0.16612028  0.83471894  0.16548730  1
  Fe  Fe8  1  0.99894743  0.66824689  0.33212898  1
  Fe  Fe9  1  0.33103328  0.99899908  0.99917238  1
  Cr  Cr10  1  0.49835608  0.16543777  0.16443605  1
  Cr  Cr11  1  0.33041821  -0.00069475  0.33210583  1
  Fe  Fe12  1  0.33104756  0.33336296  0.99780820  1
  Fe  Fe13  1  0.49867970  0.50022489  0.16651323  1
  Cr  Cr14  1  0.33249966  0.33093284  0.33498431  1
  Ni  Ni15  1  0.33186861  0.66764647  0.00030883  1
  Fe  Fe16  1  0.49792570  0.83155806  0.16537641  1
  Fe  Fe17  1  0.33393453  0.66599440  0.33217490  1
  Fe  Fe18  1  0.66538320  0.99841090  0.99845471  1
  Cr  Cr19  1  0.83308653  0.16502008  0.16569264  1
  Fe  Fe20  1  0.66689531  0.99828009  0.33392471  1
  Cr  Cr21  1  0.66684937  0.33282900  0.99822187  1
  Fe  Fe22  1  0.83176318  0.49956164  0.16781395  1
  Fe  Fe23  1  0.66482905  0.33273689  0.33324222  1
  Cr  Cr24  1  0.66503503  0.66446295  -0.00073274  1
  Fe  Fe25  1  0.83321017  0.83308692  0.16714078  1
  Fe  Fe26  1  0.66471529  0.66664117  0.33170282  1
  Ni  Ni27  1  0.16599500  0.16604673  0.50180239  1
  Fe  Fe28  1  -0.00041260  0.00034574  0.66536253  1
  Fe  Fe29  1  0.16667498  0.16519984  0.83250243  1
  Fe  Fe30  1  0.16589354  0.49800401  0.50017500  1
  Fe  Fe31  1  0.00156277  0.33299026  0.66593433  1
  Fe  Fe32  1  0.16677970  0.49859823  0.83287048  1
  Cr  Cr33  1  0.16449190  0.83146107  0.49982966  1
  Ni  Ni34  1  0.00053549  0.66583712  0.66641293  1
  Fe  Fe35  1  0.16670947  0.83399421  0.83220210  1
  Fe  Fe36  1  0.49912946  0.16460083  0.50061258  1
  Fe  Fe37  1  0.33226847  0.00214748  0.66545961  1
  Ni  Ni38  1  0.49728576  0.16613103  0.83206456  1
  Fe  Fe39  1  0.49761048  0.49923662  0.49831914  1
  Fe  Fe40  1  0.33063017  0.33129549  0.66567847  1
  Fe  Fe41  1  0.49597949  0.49734889  0.83355825  1
  Fe  Fe42  1  0.50074572  0.83370764  0.49872624  1
  Cr  Cr43  1  0.33155750  0.66572972  0.66562320  1
  Cr  Cr44  1  0.49775130  0.83518883  0.83314655  1
  Fe  Fe45  1  0.83373127  0.16292078  0.49908901  1
  Fe  Fe46  1  0.66565348  -0.00004481  0.66477514  1
  Fe  Fe47  1  0.83280303  0.16528682  0.83289782  1
  Cr  Cr48  1  0.83406631  0.50069472  0.49831617  1
  Cr  Cr49  1  0.66509766  0.33056774  0.66615291  1
  Fe  Fe50  1  0.83487469  0.49680610  0.83113012  1
  Fe  Fe51  1  0.83286258  0.83495631  0.49948190  1
  Cr  Cr52  1  0.66628937  0.66547863  0.66700016  1
  Cr  Cr53  1  0.83388228  0.83322432  0.83007983  1
" 