6716,Ni9Fe62Cr27_18,-222.979142218759, 161.62008205061,Ni9Fe62Cr27,"# generated using pymatgen
 data_Cr16Fe33Ni5
_symmetry_space_group_name_H-M   'P 1'
_cell_length_a   7.48152117
_cell_length_b   7.48152117
_cell_length_c   10.58046871
_cell_angle_alpha   90.00000000
_cell_angle_beta   90.00000000
_cell_angle_gamma   90.00000000
_symmetry_Int_Tables_number   1
_chemical_formula_structural   Cr16Fe33Ni5
_chemical_formula_sum   'Cr16 Fe33 Ni5'
_cell_volume   592.22225810
_cell_formula_units_Z   1
loop_
 _symmetry_equiv_pos_site_id
 _symmetry_equiv_pos_as_xyz
  1  'x, y, z'
loop_
 _atom_site_type_symbol
 _atom_site_label
 _atom_site_symmetry_multiplicity
 _atom_site_fract_x
 _atom_site_fract_y
 _atom_site_fract_z
 _atom_site_occupancy
  Fe  Fe0  1  -0.00067909  0.99864290  0.00019080  1
  Fe  Fe1  1  0.16613121  0.16462125  0.16631928  1
  Fe  Fe2  1  0.99848041  0.99882047  0.32975488  1
  Fe  Fe3  1  0.99616187  0.33331147  -0.00035194  1
  Fe  Fe4  1  0.16617993  0.50189834  0.16650797  1
  Cr  Cr5  1  0.00080631  0.33347682  0.33306522  1
  Fe  Fe6  1  -0.00015791  0.66468996  -0.00042721  1
  Fe  Fe7  1  0.16492591  0.83097998  0.16621088  1
  Fe  Fe8  1  -0.00034885  0.66499581  0.33010444  1
  Fe  Fe9  1  0.33128732  0.99794787  0.00079454  1
  Fe  Fe10  1  0.50024605  0.16709077  0.16705388  1
  Fe  Fe11  1  0.33152053  -0.00015583  0.33091690  1
  Cr  Cr12  1  0.33135740  0.33492300  0.00307175  1
  Ni  Ni13  1  0.50014049  0.49800759  0.16636684  1
  Fe  Fe14  1  0.33443892  0.33504222  0.33111686  1
  Fe  Fe15  1  0.33096328  0.66586845  -0.00028504  1
  Cr  Cr16  1  0.49865190  0.83019112  0.16805821  1
  Fe  Fe17  1  0.33263609  0.66196286  0.33347145  1
  Cr  Cr18  1  0.66742522  0.99901782  -0.00081266  1
  Fe  Fe19  1  0.83169945  0.16727001  0.16620298  1
  Fe  Fe20  1  0.66691505  0.00051418  0.33162496  1
  Ni  Ni21  1  0.66758705  0.33259971  0.00147548  1
  Fe  Fe22  1  0.83167854  0.49877916  0.16582813  1
  Fe  Fe23  1  0.66504342  0.33425820  0.33067886  1
  Cr  Cr24  1  0.66651491  0.66580515  -0.00048978  1
  Fe  Fe25  1  0.83419791  0.83104221  0.16784180  1
  Fe  Fe26  1  0.66553699  0.66193646  0.33165812  1
  Cr  Cr27  1  0.16408781  0.16546827  0.49884145  1
  Cr  Cr28  1  0.99574215  0.00039101  0.66617574  1
  Cr  Cr29  1  0.16436044  0.16556123  0.83255977  1
  Fe  Fe30  1  0.16586901  0.50124764  0.49903166  1
  Ni  Ni31  1  0.99682647  0.33505929  0.66561406  1
  Fe  Fe32  1  0.16461030  0.50123625  0.83203811  1
  Cr  Cr33  1  0.16499026  0.83217153  0.49857581  1
  Fe  Fe34  1  -0.00014386  0.66320633  0.66660305  1
  Fe  Fe35  1  0.16510256  0.82922623  0.83229770  1
  Cr  Cr36  1  0.49858433  0.16735963  0.49835981  1
  Fe  Fe37  1  0.33093641  0.99791644  0.66533715  1
  Cr  Cr38  1  0.49839675  0.16778881  0.83342849  1
  Ni  Ni39  1  0.50185398  0.50041671  0.49774359  1
  Cr  Cr40  1  0.32993881  0.33663463  0.66325530  1
  Cr  Cr41  1  0.50182771  0.49851877  0.83337945  1
  Fe  Fe42  1  0.49814367  0.82974043  0.49820755  1
  Ni  Ni43  1  0.33279072  0.66481165  0.66420628  1
  Cr  Cr44  1  0.49689601  0.83078719  0.82949836  1
  Fe  Fe45  1  0.83084526  0.16859173  0.49847537  1
  Cr  Cr46  1  0.66598231  0.99750018  0.66524910  1
  Fe  Fe47  1  0.83179021  0.16998048  0.83319927  1
  Fe  Fe48  1  0.83211294  0.49719336  0.49961610  1
  Fe  Fe49  1  0.66774500  0.33479178  0.66518954  1
  Fe  Fe50  1  0.83471606  0.49714812  0.83261631  1
  Cr  Cr51  1  0.83280145  0.82912198  0.49566558  1
  Fe  Fe52  1  0.66679474  0.66221785  0.66413927  1
  Fe  Fe53  1  0.83482461  0.83014099  0.83251500  1
" 