3849,Ni9Fe62Cr27_9,-223.275519102344, 173.808724264845,Ni9Fe62Cr27,"# generated using pymatgen
 data_Cr16Fe33Ni5
_symmetry_space_group_name_H-M   'P 1'
_cell_length_a   7.47821239
_cell_length_b   7.47821239
_cell_length_c   10.57578939
_cell_angle_alpha   90.00000000
_cell_angle_beta   90.00000000
_cell_angle_gamma   90.00000000
_symmetry_Int_Tables_number   1
_chemical_formula_structural   Cr16Fe33Ni5
_chemical_formula_sum   'Cr16 Fe33 Ni5'
_cell_volume   591.43685635
_cell_formula_units_Z   1
loop_
 _symmetry_equiv_pos_site_id
 _symmetry_equiv_pos_as_xyz
  1  'x, y, z'
loop_
 _atom_site_type_symbol
 _atom_site_label
 _atom_site_symmetry_multiplicity
 _atom_site_fract_x
 _atom_site_fract_y
 _atom_site_fract_z
 _atom_site_occupancy
  Fe  Fe0  1  0.00125912  0.99919953  0.00096655  1
  Fe  Fe1  1  0.16445154  0.16316332  0.16766597  1
  Ni  Ni2  1  0.99891305  -0.00010681  0.33244623  1
  Cr  Cr3  1  0.99770970  0.33243083  0.00341893  1
  Fe  Fe4  1  0.16726390  0.50160753  0.16650500  1
  Fe  Fe5  1  -0.00005130  0.33063855  0.33108022  1
  Fe  Fe6  1  0.00176630  0.66647476  0.00032913  1
  Fe  Fe7  1  0.16473268  0.83307457  0.16588616  1
  Cr  Cr8  1  0.99657019  0.66596337  0.33410380  1
  Fe  Fe9  1  0.33081757  -0.00023706  -0.00060176  1
  Fe  Fe10  1  0.50183202  0.16572050  0.16523151  1
  Cr  Cr11  1  0.33098117  0.00113882  0.33497939  1
  Cr  Cr12  1  0.33418492  0.32903337  0.99869612  1
  Fe  Fe13  1  0.50010926  0.49821021  0.16689628  1
  Cr  Cr14  1  0.33300108  0.33160883  0.33347922  1
  Fe  Fe15  1  0.33043474  0.66474977  -0.00004453  1
  Cr  Cr16  1  0.49683419  0.83136413  0.16634153  1
  Fe  Fe17  1  0.33139825  0.66637451  0.33488199  1
  Fe  Fe18  1  0.66502731  0.00367259  -0.00036312  1
  Fe  Fe19  1  0.83132013  0.16636111  0.16852039  1
  Fe  Fe20  1  0.66585895  -0.00006930  0.33411516  1
  Fe  Fe21  1  0.66528886  0.33058266  -0.00008479  1
  Fe  Fe22  1  0.83071084  0.49843902  0.16784242  1
  Fe  Fe23  1  0.66757775  0.33240594  0.33175198  1
  Cr  Cr24  1  0.66853190  0.66197629  0.99760133  1
  Cr  Cr25  1  0.83092356  0.83603559  0.16689622  1
  Fe  Fe26  1  0.66376731  0.66501717  0.33483409  1
  Ni  Ni27  1  0.16338931  0.16978323  0.50043147  1
  Fe  Fe28  1  0.00066695  0.99920830  0.66323939  1
  Fe  Fe29  1  0.16666858  0.16447172  0.83090123  1
  Fe  Fe30  1  0.16603748  0.49800888  0.50058808  1
  Fe  Fe31  1  0.00073372  0.33350838  0.66474317  1
  Cr  Cr32  1  0.16633507  0.50003451  0.83015696  1
  Fe  Fe33  1  0.16459018  0.83531149  0.49864823  1
  Fe  Fe34  1  0.00164353  0.66601531  0.66314620  1
  Fe  Fe35  1  0.16563692  0.83514657  0.83365052  1
  Fe  Fe36  1  0.49900609  0.16617213  0.50095534  1
  Cr  Cr37  1  0.33137213  0.00312885  0.66491829  1
  Ni  Ni38  1  0.49996297  0.16699386  0.83194496  1
  Fe  Fe39  1  0.49960628  0.49658000  0.49868801  1
  Ni  Ni40  1  0.33266663  0.33019938  0.66535246  1
  Fe  Fe41  1  0.50091460  0.49536819  0.83117751  1
  Ni  Ni42  1  0.50131917  0.83075941  0.49609857  1
  Cr  Cr43  1  0.33507881  0.66634501  0.66328812  1
  Cr  Cr44  1  0.49845487  0.83387547  0.83588518  1
  Cr  Cr45  1  0.83366426  0.16601560  0.49820637  1
  Fe  Fe46  1  0.66300287  0.00022357  0.66401406  1
  Cr  Cr47  1  0.83200038  0.16616315  0.83097147  1
  Fe  Fe48  1  0.83266493  0.49804452  0.49894631  1
  Fe  Fe49  1  0.66254968  0.33179471  0.66550659  1
  Fe  Fe50  1  0.83239624  0.49736591  0.83120357  1
  Fe  Fe51  1  0.83300951  0.83476997  0.49859022  1
  Cr  Cr52  1  0.67014367  0.66521406  0.66390158  1
  Cr  Cr53  1  0.83495983  0.83435774  0.83116037  1
" 