2247,Ni9Fe87Cr2_7,-226.907240187652, 153.114338319106,Ni9Fe87Cr2,"# generated using pymatgen
 data_Cr2Fe47Ni5
_symmetry_space_group_name_H-M   'P 1'
_cell_length_a   7.41744201
_cell_length_b   7.41744201
_cell_length_c   10.48984709
_cell_angle_alpha   90.00000000
_cell_angle_beta   90.00000000
_cell_angle_gamma   90.00000000
_symmetry_Int_Tables_number   1
_chemical_formula_structural   Cr2Fe47Ni5
_chemical_formula_sum   'Cr2 Fe47 Ni5'
_cell_volume   577.13508523
_cell_formula_units_Z   1
loop_
 _symmetry_equiv_pos_site_id
 _symmetry_equiv_pos_as_xyz
  1  'x, y, z'
loop_
 _atom_site_type_symbol
 _atom_site_label
 _atom_site_symmetry_multiplicity
 _atom_site_fract_x
 _atom_site_fract_y
 _atom_site_fract_z
 _atom_site_occupancy
  Cr  Cr0  1  1.00292433  1.00334354  0.00432142  1
  Fe  Fe1  1  0.16945892  0.17107193  0.17107198  1
  Fe  Fe2  1  0.00359774  1.00312567  0.33668433  1
  Fe  Fe3  1  0.00442418  0.33869191  0.00337281  1
  Fe  Fe4  1  0.17044444  0.50345227  0.16966291  1
  Fe  Fe5  1  0.00359770  0.33687449  0.33686930  1
  Fe  Fe6  1  0.00435662  0.66789660  0.00385414  1
  Fe  Fe7  1  0.17096555  0.83551208  0.17081417  1
  Ni  Ni8  1  0.00348520  0.67090526  0.33629810  1
  Fe  Fe9  1  0.33747078  1.00253427  1.00253395  1
  Cr  Cr10  1  0.50256732  0.16974205  0.16931126  1
  Fe  Fe11  1  0.33508370  1.00228314  0.33784025  1
  Ni  Ni12  1  0.33678158  0.33857358  1.00218066  1
  Fe  Fe13  1  0.50284453  0.50487937  0.16944183  1
  Fe  Fe14  1  0.33504567  0.33767218  0.33722418  1
  Ni  Ni15  1  0.33733010  0.66895325  0.00404992  1
  Fe  Fe16  1  0.50315949  0.83491502  0.16973023  1
  Fe  Fe17  1  0.33627405  0.67007636  0.33613882  1
  Fe  Fe18  1  0.66819135  1.00246598  1.00260389  1
  Fe  Fe19  1  0.83733698  0.17075411  0.17074901  1
  Fe  Fe20  1  0.67135049  1.00189484  0.33731284  1
  Fe  Fe21  1  0.67002539  0.33777872  1.00202920  1
  Fe  Fe22  1  0.83674623  0.50338197  0.17037160  1
  Fe  Fe23  1  0.67138669  0.33805876  0.33798910  1
  Fe  Fe24  1  0.66911801  0.66978512  0.00337384  1
  Fe  Fe25  1  0.83590759  0.83589908  0.17113645  1
  Fe  Fe26  1  0.67055158  0.67007655  0.33665033  1
  Ni  Ni27  1  0.17031323  0.17007900  0.50296728  1
  Fe  Fe28  1  1.00309069  0.00417555  0.67004112  1
  Fe  Fe29  1  0.17102569  0.17099561  0.83564842  1
  Fe  Fe30  1  0.16975687  0.50316358  0.50302191  1
  Fe  Fe31  1  1.00302347  0.33632577  0.66978765  1
  Fe  Fe32  1  0.17047995  0.50348826  0.83734538  1
  Fe  Fe33  1  0.16975663  0.83692664  0.50309478  1
  Fe  Fe34  1  1.00269981  0.66953050  0.66953204  1
  Fe  Fe35  1  0.17099759  0.83554835  0.83612712  1
  Fe  Fe36  1  0.50309204  0.17026414  0.50337867  1
  Fe  Fe37  1  0.33690290  0.00410539  0.66965052  1
  Fe  Fe38  1  0.50348368  0.17048380  0.83691856  1
  Fe  Fe39  1  0.50308557  0.50248473  0.50363487  1
  Fe  Fe40  1  0.33692893  0.33635687  0.67019628  1
  Fe  Fe41  1  0.50309698  0.50306397  0.83695405  1
  Fe  Fe42  1  0.50276643  0.83728209  0.50331340  1
  Fe  Fe43  1  0.33732407  0.66956909  0.67058772  1
  Fe  Fe44  1  0.50308847  0.83648378  0.83699082  1
  Fe  Fe45  1  0.83683278  0.17026286  0.50363514  1
  Fe  Fe46  1  0.67003865  0.00377933  0.67011018  1
  Fe  Fe47  1  0.83552276  0.17099923  0.83565367  1
  Fe  Fe48  1  0.83718889  0.50283759  0.50334391  1
  Ni  Ni49  1  0.66972691  0.33629983  0.66979907  1
  Fe  Fe50  1  0.83645697  0.50309136  0.83631394  1
  Fe  Fe51  1  0.83750883  0.83693214  0.50302336  1
  Fe  Fe52  1  0.67000779  0.66950160  0.67000748  1
  Fe  Fe53  1  0.83594504  0.83593863  0.83587397  1
" 