3219,Ni9Fe84Cr6_8,-226.586324700101, 154.192951478206,Ni9Fe84Cr6,"# generated using pymatgen
 data_Cr4(Fe9Ni)5
_symmetry_space_group_name_H-M   'P 1'
_cell_length_a   7.43061208
_cell_length_b   7.43061208
_cell_length_c   10.50847238
_cell_angle_alpha   90.00000000
_cell_angle_beta   90.00000000
_cell_angle_gamma   90.00000000
_symmetry_Int_Tables_number   1
_chemical_formula_structural   Cr4(Fe9Ni)5
_chemical_formula_sum   'Cr4 Fe45 Ni5'
_cell_volume   580.21475034
_cell_formula_units_Z   1
loop_
 _symmetry_equiv_pos_site_id
 _symmetry_equiv_pos_as_xyz
  1  'x, y, z'
loop_
 _atom_site_type_symbol
 _atom_site_label
 _atom_site_symmetry_multiplicity
 _atom_site_fract_x
 _atom_site_fract_y
 _atom_site_fract_z
 _atom_site_occupancy
  Fe  Fe0  1  1.00060536  0.00425718  1.00235627  1
  Fe  Fe1  1  0.16884441  0.17103798  0.16919933  1
  Fe  Fe2  1  1.00194373  0.00356126  0.33676350  1
  Fe  Fe3  1  0.00413720  0.33575939  0.00298748  1
  Fe  Fe4  1  0.16888435  0.50046254  0.16979208  1
  Ni  Ni5  1  0.00278576  0.33574582  0.33504377  1
  Fe  Fe6  1  1.00067169  0.66733632  0.00245196  1
  Cr  Cr7  1  0.16865057  0.83531814  0.16980170  1
  Fe  Fe8  1  1.00200855  0.66740066  0.33743707  1
  Fe  Fe9  1  0.33681474  0.00348142  0.00326713  1
  Fe  Fe10  1  0.50141135  0.16801233  0.16964041  1
  Fe  Fe11  1  0.33579742  0.00352293  0.33683174  1
  Fe  Fe12  1  0.33335795  0.33660109  0.00319724  1
  Fe  Fe13  1  0.50141103  0.50353396  0.16970246  1
  Fe  Fe14  1  0.33494394  0.33602284  0.33589664  1
  Fe  Fe15  1  0.33759048  0.66727017  0.00249328  1
  Fe  Fe16  1  0.50413932  0.83580995  0.16896863  1
  Fe  Fe17  1  0.33536077  0.66781187  0.33706405  1
  Fe  Fe18  1  0.66993419  1.00002459  0.00333453  1
  Fe  Fe19  1  0.83710085  0.16831090  0.17013891  1
  Fe  Fe20  1  0.66961454  0.00314849  0.33552611  1
  Cr  Cr21  1  0.67021182  0.33687805  0.00325761  1
  Fe  Fe22  1  0.83706056  0.50319430  0.17073233  1
  Fe  Fe23  1  0.67002616  0.33595329  0.33572708  1
  Fe  Fe24  1  0.66909144  0.67080293  1.00185986  1
  Fe  Fe25  1  0.83402898  0.83585005  0.16885983  1
  Fe  Fe26  1  0.66998546  0.66825249  0.33645981  1
  Fe  Fe27  1  0.16827949  0.16993426  0.50217931  1
  Fe  Fe28  1  1.00138137  1.00235620  0.66823602  1
  Fe  Fe29  1  0.16748981  0.17073938  0.83597371  1
  Ni  Ni30  1  0.16799805  0.50414635  0.50217729  1
  Fe  Fe31  1  1.00182235  0.33692731  0.66810044  1
  Fe  Fe32  1  0.16941060  0.50046685  0.83547967  1
  Ni  Ni33  1  0.16937153  0.83526079  0.50223645  1
  Fe  Fe34  1  1.00133896  0.66807262  0.66746584  1
  Cr  Cr35  1  0.16907986  0.83517442  0.83549556  1
  Fe  Fe36  1  0.50182298  0.16961700  0.50267889  1
  Fe  Fe37  1  0.33610783  1.00158251  0.66725697  1
  Cr  Cr38  1  0.50279313  0.16874786  0.83494222  1
  Fe  Fe39  1  0.50219273  0.50335465  0.50285117  1
  Fe  Fe40  1  0.33536230  0.33740090  0.66825993  1
  Fe  Fe41  1  0.50171071  0.50541733  0.83480761  1
  Fe  Fe42  1  0.50209606  0.83438410  0.50278054  1
  Fe  Fe43  1  0.33661660  0.66837442  0.66779810  1
  Fe  Fe44  1  0.50443777  0.83385721  0.83560980  1
  Fe  Fe45  1  0.83725298  0.17002814  0.50210966  1
  Fe  Fe46  1  0.66986887  1.00110244  0.66849241  1
  Fe  Fe47  1  0.83852370  0.16801317  0.83510541  1
  Ni  Ni48  1  0.83582430  0.50170759  0.50223576  1
  Fe  Fe49  1  0.67017004  0.33743865  0.66835977  1
  Fe  Fe50  1  0.83623364  0.50356515  0.83417394  1
  Fe  Fe51  1  0.83663965  0.83430830  0.50282208  1
  Ni  Ni52  1  0.66858310  0.66927560  0.67029677  1
  Fe  Fe53  1  0.83357175  0.83577865  0.83567667  1
" 