3157,Ni9Fe57Cr33_17,-221.849319077983, 173.099315960178,Ni9Fe57Cr33,"# generated using pymatgen
 data_Cr19(Fe6Ni)5
_symmetry_space_group_name_H-M   'P 1'
_cell_length_a   7.49019173
_cell_length_b   7.49019173
_cell_length_c   10.59273073
_cell_angle_alpha   90.00000000
_cell_angle_beta   90.00000000
_cell_angle_gamma   90.00000000
_symmetry_Int_Tables_number   1
_chemical_formula_structural   Cr19(Fe6Ni)5
_chemical_formula_sum   'Cr19 Fe30 Ni5'
_cell_volume   594.28367760
_cell_formula_units_Z   1
loop_
 _symmetry_equiv_pos_site_id
 _symmetry_equiv_pos_as_xyz
  1  'x, y, z'
loop_
 _atom_site_type_symbol
 _atom_site_label
 _atom_site_symmetry_multiplicity
 _atom_site_fract_x
 _atom_site_fract_y
 _atom_site_fract_z
 _atom_site_occupancy
  Fe  Fe0  1  -0.00139067  -0.00051990  0.99770658  1
  Fe  Fe1  1  0.16650292  0.16610103  0.16568534  1
  Fe  Fe2  1  0.99770953  0.00195641  0.33194282  1
  Cr  Cr3  1  0.99638353  0.33017591  -0.00018407  1
  Fe  Fe4  1  0.16627691  0.49479180  0.16565750  1
  Ni  Ni5  1  0.99626089  0.32855901  0.33175754  1
  Cr  Cr6  1  -0.00075697  0.66411234  0.99807803  1
  Cr  Cr7  1  0.16423801  0.83550255  0.16390448  1
  Cr  Cr8  1  0.00126654  0.66222380  0.33357227  1
  Ni  Ni9  1  0.33454371  0.99839707  -0.00097294  1
  Ni  Ni10  1  0.49649538  0.16612912  0.16674542  1
  Fe  Fe11  1  0.33362543  0.00150414  0.33062768  1
  Fe  Fe12  1  0.33399105  0.32914087  -0.00072368  1
  Cr  Cr13  1  0.49805004  0.49557095  0.16271256  1
  Fe  Fe14  1  0.33210823  0.32944809  0.33012084  1
  Fe  Fe15  1  0.33427085  0.66636109  0.99826170  1
  Fe  Fe16  1  0.49761384  0.83483177  0.16404252  1
  Cr  Cr17  1  0.33079964  0.66891491  0.33063595  1
  Cr  Cr18  1  0.66350063  0.00056067  0.99799813  1
  Fe  Fe19  1  0.83056311  0.16583897  0.16728687  1
  Fe  Fe20  1  0.66398173  0.00232601  0.33119749  1
  Fe  Fe21  1  0.66279297  0.33059169  0.99786863  1
  Cr  Cr22  1  0.82921967  0.49790133  0.16705877  1
  Ni  Ni23  1  0.66750610  0.32582568  0.33185999  1
  Fe  Fe24  1  0.66333024  0.66559338  0.99602069  1
  Cr  Cr25  1  0.83122288  0.83449013  0.16447508  1
  Cr  Cr26  1  0.66323134  0.66585379  0.33293292  1
  Cr  Cr27  1  0.16646981  0.16440249  0.49926220  1
  Fe  Fe28  1  0.99624653  0.99830167  0.66544965  1
  Cr  Cr29  1  0.16720240  0.16413048  0.83141082  1
  Cr  Cr30  1  0.16459267  0.49575399  0.49856750  1
  Fe  Fe31  1  0.99752479  0.33181815  0.66476675  1
  Cr  Cr32  1  0.16801918  0.49605872  0.83138246  1
  Fe  Fe33  1  0.16593782  0.83388630  0.49921406  1
  Fe  Fe34  1  0.99512400  0.66506625  0.66566680  1
  Cr  Cr35  1  0.16220343  0.83512691  0.83106829  1
  Fe  Fe36  1  0.49982440  0.16326741  0.49675736  1
  Fe  Fe37  1  0.33449876  -0.00024070  0.66510154  1
  Fe  Fe38  1  0.49827735  0.16408717  0.83286621  1
  Cr  Cr39  1  0.50025963  0.49527266  0.49738363  1
  Fe  Fe40  1  0.33320324  0.32994677  0.66574157  1
  Fe  Fe41  1  0.50032757  0.49919240  0.83297948  1
  Fe  Fe42  1  0.49731266  0.83533506  0.49912836  1
  Cr  Cr43  1  0.33148598  0.66838136  0.66425499  1
  Fe  Fe44  1  0.49935252  0.83221476  0.83215797  1
  Fe  Fe45  1  0.83131609  0.16689492  0.49705995  1
  Fe  Fe46  1  0.66452928  0.99705400  0.66651265  1
  Fe  Fe47  1  0.83200781  0.16325106  0.83114126  1
  Fe  Fe48  1  0.83242140  0.49504108  0.49796610  1
  Cr  Cr49  1  0.66740788  0.32921225  0.66662956  1
  Fe  Fe50  1  0.83040249  0.50003964  0.83147329  1
  Cr  Cr51  1  0.83162595  0.83276917  0.49909335  1
  Fe  Fe52  1  0.66652992  0.66653254  0.66661715  1
  Ni  Ni53  1  0.82913095  0.83159292  0.83064998  1
" 