5349,Ni9Fe84Cr6_6,-226.615680221186, 148.278805447772,Ni9Fe84Cr6,"# generated using pymatgen
 data_Cr4(Fe9Ni)5
_symmetry_space_group_name_H-M   'P 1'
_cell_length_a   7.43039622
_cell_length_b   7.43039622
_cell_length_c   10.50816711
_cell_angle_alpha   90.00000000
_cell_angle_beta   90.00000000
_cell_angle_gamma   90.00000000
_symmetry_Int_Tables_number   1
_chemical_formula_structural   Cr4(Fe9Ni)5
_chemical_formula_sum   'Cr4 Fe45 Ni5'
_cell_volume   580.16418605
_cell_formula_units_Z   1
loop_
 _symmetry_equiv_pos_site_id
 _symmetry_equiv_pos_as_xyz
  1  'x, y, z'
loop_
 _atom_site_type_symbol
 _atom_site_label
 _atom_site_symmetry_multiplicity
 _atom_site_fract_x
 _atom_site_fract_y
 _atom_site_fract_z
 _atom_site_occupancy
  Ni  Ni0  1  0.00333649  1.00212449  0.00301727  1
  Fe  Fe1  1  0.17001592  0.16744919  0.17067283  1
  Fe  Fe2  1  1.00142051  1.00134895  0.33499880  1
  Cr  Cr3  1  0.00257546  0.33371092  0.00249745  1
  Fe  Fe4  1  0.17092713  0.50260303  0.17092640  1
  Fe  Fe5  1  1.00149474  0.33674060  0.33474805  1
  Cr  Cr6  1  0.00355283  0.67142244  1.00194624  1
  Fe  Fe7  1  0.17028208  0.83738900  0.16922766  1
  Fe  Fe8  1  1.00243058  0.66919438  0.33535915  1
  Fe  Fe9  1  0.33515061  0.00287668  1.00215236  1
  Fe  Fe10  1  0.50247321  0.16906202  0.16911984  1
  Fe  Fe11  1  0.33723464  1.00130428  0.33500730  1
  Fe  Fe12  1  0.33637888  0.33525905  0.00254831  1
  Fe  Fe13  1  0.50263292  0.50263613  0.16894828  1
  Fe  Fe14  1  0.33693670  0.33658546  0.33518377  1
  Fe  Fe15  1  0.33686725  0.66948660  1.00211987  1
  Fe  Fe16  1  0.50254300  0.83569014  0.16934431  1
  Fe  Fe17  1  0.33592825  0.66943101  0.33582306  1
  Fe  Fe18  1  0.67046398  0.00320107  0.00274181  1
  Fe  Fe19  1  0.83452088  0.16789318  0.16943914  1
  Fe  Fe20  1  0.66880861  1.00241485  0.33597638  1
  Ni  Ni21  1  0.66654962  0.33531528  0.00304486  1
  Fe  Fe22  1  0.83343710  0.50236388  0.16973734  1
  Fe  Fe23  1  0.66901112  0.33562098  0.33504293  1
  Fe  Fe24  1  0.66775525  0.66993252  0.00264685  1
  Fe  Fe25  1  0.83484581  0.83713118  0.17003009  1
  Fe  Fe26  1  0.66902719  0.66934833  0.33697029  1
  Cr  Cr27  1  0.16960194  0.16781709  0.50252321  1
  Ni  Ni28  1  0.00255181  1.00228853  0.66961499  1
  Fe  Fe29  1  0.16919403  0.16735271  0.83426419  1
  Fe  Fe30  1  0.16921859  0.50386747  0.50219318  1
  Fe  Fe31  1  1.00177997  0.33581332  0.66912914  1
  Fe  Fe32  1  0.17181787  0.50342763  0.83424885  1
  Fe  Fe33  1  0.16870619  0.83449741  0.50349222  1
  Fe  Fe34  1  0.00265657  0.67118432  0.66898476  1
  Ni  Ni35  1  0.17046754  0.83783568  0.83513761  1
  Fe  Fe36  1  0.50411561  0.16914686  0.50224153  1
  Fe  Fe37  1  0.33716846  1.00065283  0.67001885  1
  Fe  Fe38  1  0.50242013  0.16904530  0.83619374  1
  Fe  Fe39  1  0.50231849  0.50231394  0.50282803  1
  Fe  Fe40  1  0.33692794  0.33643923  0.66966808  1
  Fe  Fe41  1  0.50050121  0.50335402  0.83575536  1
  Fe  Fe42  1  0.50229124  0.83589629  0.50249257  1
  Fe  Fe43  1  0.33543774  0.67043999  0.66927833  1
  Fe  Fe44  1  0.50285277  0.83493250  0.83549471  1
  Fe  Fe45  1  0.83474288  0.16858988  0.50279633  1
  Fe  Fe46  1  0.66945072  1.00161547  0.66868728  1
  Fe  Fe47  1  0.83540538  0.16586847  0.83577644  1
  Fe  Fe48  1  0.83565602  0.50249857  0.50319459  1
  Fe  Fe49  1  0.66848406  0.33429488  0.66890807  1
  Cr  Cr50  1  0.83357109  0.50262979  0.83522928  1
  Fe  Fe51  1  0.83622656  0.83625165  0.50321720  1
  Ni  Ni52  1  0.66731773  0.66925207  0.66816503  1
  Fe  Fe53  1  0.83569769  0.83833945  0.83437677  1
" 