2570,Ni9Fe26Cr64_12,-213.772189763263, 185.092889823168,Ni9Fe26Cr64,"# generated using pymatgen
 data_Cr35Fe14Ni5
_symmetry_space_group_name_H-M   'P 1'
_cell_length_a   7.54590372
_cell_length_b   7.54590372
_cell_length_c   10.67151938
_cell_angle_alpha   90.00000000
_cell_angle_beta   90.00000000
_cell_angle_gamma   90.00000000
_symmetry_Int_Tables_number   1
_chemical_formula_structural   Cr35Fe14Ni5
_chemical_formula_sum   'Cr35 Fe14 Ni5'
_cell_volume   607.64338800
_cell_formula_units_Z   1
loop_
 _symmetry_equiv_pos_site_id
 _symmetry_equiv_pos_as_xyz
  1  'x, y, z'
loop_
 _atom_site_type_symbol
 _atom_site_label
 _atom_site_symmetry_multiplicity
 _atom_site_fract_x
 _atom_site_fract_y
 _atom_site_fract_z
 _atom_site_occupancy
  Cr  Cr0  1  -0.00398457  0.99447804  -0.00383487  1
  Cr  Cr1  1  0.16063941  0.16174048  0.16359948  1
  Fe  Fe2  1  0.99336667  0.99300815  0.32878658  1
  Cr  Cr3  1  -0.00427916  0.32896094  0.99188428  1
  Cr  Cr4  1  0.16478033  0.49604147  0.15953962  1
  Cr  Cr5  1  0.99405204  0.33037457  0.33111654  1
  Cr  Cr6  1  -0.00407739  0.66051675  -0.00409135  1
  Fe  Fe7  1  0.16283767  0.82630984  0.16137307  1
  Cr  Cr8  1  0.99229511  0.66111786  0.32702412  1
  Cr  Cr9  1  0.32801864  -0.00472399  -0.00286439  1
  Cr  Cr10  1  0.49633591  0.16567938  0.16065560  1
  Cr  Cr11  1  0.32831839  -0.00429228  0.32698058  1
  Fe  Fe12  1  0.32870214  0.33087347  0.99271083  1
  Cr  Cr13  1  0.49460273  0.49455720  0.16061012  1
  Fe  Fe14  1  0.32798085  0.32900131  0.32830452  1
  Ni  Ni15  1  0.32771317  0.65909629  0.99188847  1
  Cr  Cr16  1  0.49396355  0.82475897  0.16040192  1
  Cr  Cr17  1  0.32824760  0.66333547  0.32957661  1
  Cr  Cr18  1  0.66059937  -0.00487228  0.99202672  1
  Cr  Cr19  1  0.82701585  0.16242648  0.16172220  1
  Cr  Cr20  1  0.66027672  0.99272569  0.32991836  1
  Ni  Ni21  1  0.65962464  0.32977667  0.99466937  1
  Cr  Cr22  1  0.82510716  0.49325108  0.16280065  1
  Fe  Fe23  1  0.66147269  0.33006612  0.32897943  1
  Cr  Cr24  1  0.66160979  0.66030630  0.99381540  1
  Cr  Cr25  1  0.82926613  0.82885391  0.16056372  1
  Fe  Fe26  1  0.66261347  0.66221440  0.33031080  1
  Cr  Cr27  1  0.15980203  0.16081366  0.49556707  1
  Fe  Fe28  1  0.99329127  0.99321632  0.66188054  1
  Fe  Fe29  1  0.16206948  0.16209921  0.82758744  1
  Cr  Cr30  1  0.16174415  0.49550986  0.49780866  1
  Fe  Fe31  1  0.99374838  0.32854134  0.66166349  1
  Fe  Fe32  1  0.16454389  0.49491770  0.82850143  1
  Cr  Cr33  1  0.16062347  0.82793271  0.49421754  1
  Cr  Cr34  1  0.99312133  0.65848057  0.66179129  1
  Cr  Cr35  1  0.16083186  0.82691940  0.82886771  1
  Cr  Cr36  1  0.49518261  0.16239646  0.49311713  1
  Cr  Cr37  1  0.33084452  -0.00496488  0.65970768  1
  Cr  Cr38  1  0.49649533  0.16346921  0.83033230  1
  Cr  Cr39  1  0.49459960  0.49579753  0.49261708  1
  Cr  Cr40  1  0.32714897  0.32800358  0.66386290  1
  Ni  Ni41  1  0.49172377  0.49485863  0.83099956  1
  Fe  Fe42  1  0.49748018  0.82748861  0.49539419  1
  Fe  Fe43  1  0.32915245  0.65956690  0.66291535  1
  Cr  Cr44  1  0.49395333  0.82517638  0.82571707  1
  Cr  Cr45  1  0.82896345  0.16080191  0.49607165  1
  Fe  Fe46  1  0.66317348  0.99359236  0.66043441  1
  Cr  Cr47  1  0.82952687  0.15908618  0.82648714  1
  Ni  Ni48  1  0.82673415  0.49707295  0.49289577  1
  Cr  Cr49  1  0.66150471  0.33013358  0.66054448  1
  Cr  Cr50  1  0.82653553  0.49362902  0.82907654  1
  Ni  Ni51  1  0.82805754  0.82809599  0.49615201  1
  Cr  Cr52  1  0.66220240  0.66190996  0.65875810  1
  Fe  Fe53  1  0.82769126  0.82771750  0.82640801  1
" 