7281,Ni9Fe62Cr27_3,-223.44660275937, 169.39547469459,Ni9Fe62Cr27,"# generated using pymatgen
 data_Cr16Fe33Ni5
_symmetry_space_group_name_H-M   'P 1'
_cell_length_a   7.48323151
_cell_length_b   7.48323151
_cell_length_c   10.58288750
_cell_angle_alpha   90.00000000
_cell_angle_beta   90.00000000
_cell_angle_gamma   90.00000000
_symmetry_Int_Tables_number   1
_chemical_formula_structural   Cr16Fe33Ni5
_chemical_formula_sum   'Cr16 Fe33 Ni5'
_cell_volume   592.62851224
_cell_formula_units_Z   1
loop_
 _symmetry_equiv_pos_site_id
 _symmetry_equiv_pos_as_xyz
  1  'x, y, z'
loop_
 _atom_site_type_symbol
 _atom_site_label
 _atom_site_symmetry_multiplicity
 _atom_site_fract_x
 _atom_site_fract_y
 _atom_site_fract_z
 _atom_site_occupancy
  Fe  Fe0  1  0.99873415  0.99648028  0.99747244  1
  Cr  Cr1  1  0.16170330  0.16439697  0.16432494  1
  Fe  Fe2  1  0.99523584  0.99874754  0.33389844  1
  Fe  Fe3  1  -0.00034123  0.32993974  0.99836292  1
  Cr  Cr4  1  0.16487936  0.50052684  0.16680434  1
  Fe  Fe5  1  0.99707066  0.33000921  0.33467941  1
  Fe  Fe6  1  -0.00105388  0.66993145  0.99770903  1
  Fe  Fe7  1  0.16146431  0.83150807  0.16543083  1
  Fe  Fe8  1  -0.00017025  0.66786483  0.33414785  1
  Cr  Cr9  1  0.33145605  -0.00065170  -0.00091122  1
  Fe  Fe10  1  0.50255026  0.16570138  0.16588274  1
  Cr  Cr11  1  0.33314271  0.99728223  0.32927139  1
  Fe  Fe12  1  0.33296224  0.33139417  0.99666075  1
  Cr  Cr13  1  0.49857204  0.50046649  0.16356387  1
  Cr  Cr14  1  0.33041799  0.33151453  0.33360748  1
  Cr  Cr15  1  0.33221678  0.66793667  0.99800485  1
  Fe  Fe16  1  0.50081905  0.83402575  0.16572505  1
  Fe  Fe17  1  0.33204170  0.66768222  0.33390869  1
  Cr  Cr18  1  0.66557066  0.99686166  -0.00004406  1
  Ni  Ni19  1  0.83255463  0.16240944  0.16744473  1
  Ni  Ni20  1  0.66717140  0.99781168  0.33286512  1
  Fe  Fe21  1  0.66394362  0.33019359  -0.00050545  1
  Cr  Cr22  1  0.83334608  0.49734714  0.16317674  1
  Cr  Cr23  1  0.66817909  0.33047505  0.33367447  1
  Fe  Fe24  1  0.66543405  0.66795491  0.99721959  1
  Fe  Fe25  1  0.83466204  0.83464838  0.16624187  1
  Cr  Cr26  1  0.66681353  0.66783879  0.33061507  1
  Fe  Fe27  1  0.16401092  0.16351041  0.49895565  1
  Ni  Ni28  1  -0.00036240  0.99783500  0.66595754  1
  Fe  Fe29  1  0.16573372  0.16463286  0.83258963  1
  Fe  Fe30  1  0.16575349  0.50140373  0.49833915  1
  Cr  Cr31  1  0.00043422  0.33287143  0.66298750  1
  Fe  Fe32  1  0.16720973  0.50006751  0.83224589  1
  Fe  Fe33  1  0.16381655  0.83178276  0.50030545  1
  Fe  Fe34  1  0.00153749  0.66903490  0.66548022  1
  Ni  Ni35  1  0.16517390  0.83178801  0.83096786  1
  Fe  Fe36  1  0.50057724  0.16403630  0.49993498  1
  Cr  Cr37  1  0.33123554  -0.00065382  0.66787673  1
  Fe  Fe38  1  0.49813463  0.16623142  0.83160656  1
  Fe  Fe39  1  0.49751775  0.49946458  0.50029124  1
  Fe  Fe40  1  0.33335588  0.33348604  0.66502568  1
  Fe  Fe41  1  0.49664640  0.49850262  0.83233922  1
  Fe  Fe42  1  0.49940301  0.83312545  0.49952475  1
  Fe  Fe43  1  0.32934050  0.66526228  0.66674923  1
  Ni  Ni44  1  0.49745735  0.83150708  0.83067220  1
  Fe  Fe45  1  0.83255385  0.16171207  0.49895812  1
  Fe  Fe46  1  0.66709187  -0.00082708  0.66442169  1
  Cr  Cr47  1  0.83231287  0.16401089  0.83086613  1
  Fe  Fe48  1  0.83365564  0.50008632  0.49906579  1
  Fe  Fe49  1  0.66367052  0.32990620  0.66372609  1
  Cr  Cr50  1  0.83178049  0.49886710  0.83528161  1
  Fe  Fe51  1  0.83375335  0.83487924  0.49926879  1
  Cr  Cr52  1  0.66625964  0.66586745  0.66735638  1
  Fe  Fe53  1  0.83417702  0.83291933  0.83158146  1
" 