3715,Ni9Fe26Cr64_16,-213.470524267109, 186.917160626835,Ni9Fe26Cr64,"# generated using pymatgen
 data_Cr35Fe14Ni5
_symmetry_space_group_name_H-M   'P 1'
_cell_length_a   7.54522370
_cell_length_b   7.54522370
_cell_length_c   10.67055769
_cell_angle_alpha   90.00000000
_cell_angle_beta   90.00000000
_cell_angle_gamma   90.00000000
_symmetry_Int_Tables_number   1
_chemical_formula_structural   Cr35Fe14Ni5
_chemical_formula_sum   'Cr35 Fe14 Ni5'
_cell_volume   607.47912525
_cell_formula_units_Z   1
loop_
 _symmetry_equiv_pos_site_id
 _symmetry_equiv_pos_as_xyz
  1  'x, y, z'
loop_
 _atom_site_type_symbol
 _atom_site_label
 _atom_site_symmetry_multiplicity
 _atom_site_fract_x
 _atom_site_fract_y
 _atom_site_fract_z
 _atom_site_occupancy
  Cr  Cr0  1  0.99304542  -0.00437050  0.99366299  1
  Cr  Cr1  1  0.16419190  0.16322803  0.16258386  1
  Cr  Cr2  1  0.99451232  -0.00417019  0.32775148  1
  Cr  Cr3  1  -0.00488728  0.32727702  0.99432452  1
  Cr  Cr4  1  0.16121474  0.49343106  0.16098792  1
  Fe  Fe5  1  0.99466969  0.32827531  0.32801404  1
  Fe  Fe6  1  -0.00474043  0.66103589  0.99477608  1
  Cr  Cr7  1  0.16056613  0.82779460  0.16243083  1
  Fe  Fe8  1  0.99459112  0.66059788  0.32819784  1
  Cr  Cr9  1  0.32812722  0.99394968  0.99416634  1
  Cr  Cr10  1  0.49245643  0.16270465  0.16249131  1
  Fe  Fe11  1  0.32925725  -0.00337513  0.32905267  1
  Ni  Ni12  1  0.32864484  0.33189033  -0.00329203  1
  Fe  Fe13  1  0.49335595  0.49446829  0.16052741  1
  Fe  Fe14  1  0.32965450  0.32757999  0.32909294  1
  Fe  Fe15  1  0.32903308  0.65963566  0.99438333  1
  Cr  Cr16  1  0.49579717  0.82860412  0.15983780  1
  Cr  Cr17  1  0.32804057  0.65958537  0.33005153  1
  Cr  Cr18  1  0.66328657  0.99449362  0.99444033  1
  Fe  Fe19  1  0.82872269  0.16182334  0.16140070  1
  Cr  Cr20  1  0.66185752  -0.00295805  0.32831971  1
  Cr  Cr21  1  0.66122160  0.32841454  -0.00482050  1
  Cr  Cr22  1  0.82862019  0.49677240  0.16123569  1
  Cr  Cr23  1  0.66046220  0.32760044  0.32968591  1
  Fe  Fe24  1  0.66016497  0.66103528  -0.00512867  1
  Cr  Cr25  1  0.82809477  0.82563565  0.16113581  1
  Cr  Cr26  1  0.66052376  0.65982017  0.32831854  1
  Cr  Cr27  1  0.16306253  0.16174854  0.49392371  1
  Fe  Fe28  1  0.99399856  -0.00348307  0.66199111  1
  Cr  Cr29  1  0.16085697  0.16221670  0.82795216  1
  Cr  Cr30  1  0.16125091  0.49419111  0.49452862  1
  Fe  Fe31  1  0.99298703  0.32632285  0.66208702  1
  Cr  Cr32  1  0.16199038  0.49483027  0.82894882  1
  Cr  Cr33  1  0.16116483  0.82851717  0.49448954  1
  Cr  Cr34  1  -0.00245868  0.66127953  0.66053934  1
  Cr  Cr35  1  0.16253460  0.82740909  0.82753653  1
  Ni  Ni36  1  0.49513479  0.16413790  0.49365215  1
  Cr  Cr37  1  0.32800222  0.99249244  0.66113206  1
  Cr  Cr38  1  0.49532509  0.16160834  0.82851198  1
  Ni  Ni39  1  0.49478382  0.49144045  0.49496631  1
  Cr  Cr40  1  0.32922473  0.33100357  0.65994791  1
  Cr  Cr41  1  0.49451667  0.49576147  0.82946399  1
  Cr  Cr42  1  0.49414568  0.82934312  0.49562294  1
  Ni  Ni43  1  0.32894038  0.66064224  0.66203752  1
  Fe  Fe44  1  0.49437960  0.82677502  0.82814732  1
  Fe  Fe45  1  0.82678245  0.16282502  0.49625442  1
  Cr  Cr46  1  0.66334866  -0.00216785  0.66169433  1
  Ni  Ni47  1  0.82835534  0.16135046  0.82581305  1
  Cr  Cr48  1  0.82790142  0.49401895  0.49542525  1
  Fe  Fe49  1  0.66137657  0.32733252  0.66008846  1
  Cr  Cr50  1  0.82794908  0.49407710  0.82779451  1
  Cr  Cr51  1  0.82914881  0.82753441  0.49379189  1
  Cr  Cr52  1  0.65772379  0.66004941  0.66076078  1
  Cr  Cr53  1  0.82734177  0.82821673  0.82952277  1
" 