2556,Ni9Fe87Cr2_11,-226.978196759908, 149.738742158544,Ni9Fe87Cr2,"# generated using pymatgen
 data_Cr2Fe47Ni5
_symmetry_space_group_name_H-M   'P 1'
_cell_length_a   7.41926855
_cell_length_b   7.41926855
_cell_length_c   10.49243020
_cell_angle_alpha   90.00000000
_cell_angle_beta   90.00000000
_cell_angle_gamma   90.00000000
_symmetry_Int_Tables_number   1
_chemical_formula_structural   Cr2Fe47Ni5
_chemical_formula_sum   'Cr2 Fe47 Ni5'
_cell_volume   577.56154668
_cell_formula_units_Z   1
loop_
 _symmetry_equiv_pos_site_id
 _symmetry_equiv_pos_as_xyz
  1  'x, y, z'
loop_
 _atom_site_type_symbol
 _atom_site_label
 _atom_site_symmetry_multiplicity
 _atom_site_fract_x
 _atom_site_fract_y
 _atom_site_fract_z
 _atom_site_occupancy
  Fe  Fe0  1  1.00200431  1.00315474  0.00325079  1
  Fe  Fe1  1  0.16960718  0.17079400  0.16974234  1
  Fe  Fe2  1  0.00470533  0.00330384  0.33669710  1
  Ni  Ni3  1  0.00419699  0.33688941  0.00402823  1
  Ni  Ni4  1  0.16978049  0.50278607  0.17011305  1
  Fe  Fe5  1  0.00499221  0.33660225  0.33627357  1
  Fe  Fe6  1  1.00239005  0.66967123  0.00357113  1
  Fe  Fe7  1  0.16995854  0.83602734  0.17013705  1
  Fe  Fe8  1  1.00311168  0.66975300  0.33634514  1
  Fe  Fe9  1  0.33720800  0.00322002  1.00317806  1
  Fe  Fe10  1  0.50115639  0.17008072  0.16803187  1
  Fe  Fe11  1  0.33506250  0.00344997  0.33669725  1
  Fe  Fe12  1  0.33692481  0.33683458  0.00360315  1
  Fe  Fe13  1  0.50203735  0.50443345  0.16892232  1
  Fe  Fe14  1  0.33493100  0.33660191  0.33627342  1
  Fe  Fe15  1  0.33682282  0.66960516  0.00349820  1
  Fe  Fe16  1  0.50239386  0.83514580  0.16850321  1
  Fe  Fe17  1  0.33665978  0.66960726  0.33634540  1
  Ni  Ni18  1  0.66908823  1.00205086  0.00323932  1
  Fe  Fe19  1  0.83889467  0.17042846  0.16767926  1
  Cr  Cr20  1  0.66944162  1.00161881  0.33658515  1
  Fe  Fe21  1  0.67037894  0.33645005  0.00348177  1
  Fe  Fe22  1  0.83801639  0.50408304  0.16856732  1
  Cr  Cr23  1  0.67048552  0.33770239  0.33565694  1
  Ni  Ni24  1  0.66908798  0.67138532  0.00437262  1
  Fe  Fe25  1  0.83730236  0.83514691  0.16857500  1
  Fe  Fe26  1  0.66988818  0.66988877  0.33614476  1
  Fe  Fe27  1  0.16960711  0.17009348  0.50350646  1
  Fe  Fe28  1  0.00326140  0.00370577  0.66971185  1
  Fe  Fe29  1  0.16932228  0.17045001  0.83640921  1
  Fe  Fe30  1  0.16960712  0.50290830  0.50291107  1
  Ni  Ni31  1  0.00360018  0.33677740  0.66863254  1
  Fe  Fe32  1  0.16932289  0.50258397  0.83703418  1
  Fe  Fe33  1  0.16995888  0.83665805  0.50318665  1
  Fe  Fe34  1  0.00329483  0.66939975  0.66974475  1
  Fe  Fe35  1  0.17002957  0.83662646  0.83633619  1
  Fe  Fe36  1  0.50150189  0.16981411  0.50486423  1
  Fe  Fe37  1  0.33595847  0.00377101  0.66978449  1
  Fe  Fe38  1  0.50342874  0.16946443  0.83676165  1
  Fe  Fe39  1  0.50246538  0.50415399  0.50404816  1
  Fe  Fe40  1  0.33609770  0.33655577  0.66978497  1
  Fe  Fe41  1  0.50350358  0.50364384  0.83669013  1
  Fe  Fe42  1  0.50239215  0.83569095  0.50405140  1
  Fe  Fe43  1  0.33592509  0.66933305  0.66981734  1
  Fe  Fe44  1  0.50377700  0.83655201  0.83711075  1
  Fe  Fe45  1  0.83854963  0.17016251  0.50521325  1
  Fe  Fe46  1  0.67043983  0.00387635  0.67010586  1
  Fe  Fe47  1  0.83691007  0.17017310  0.83676353  1
  Fe  Fe48  1  0.83758810  0.50380343  0.50439930  1
  Fe  Fe49  1  0.67037539  0.33652230  0.66940854  1
  Fe  Fe50  1  0.83683472  0.50293573  0.83669214  1
  Fe  Fe51  1  0.83730810  0.83569190  0.50397554  1
  Fe  Fe52  1  0.67043981  0.66926116  0.67030409  1
  Fe  Fe53  1  0.83584917  0.83655207  0.83711459  1
" 