5844,Ni9Fe84Cr6_10,-226.718189040984, 154.361503697861,Ni9Fe84Cr6,"# generated using pymatgen
 data_Cr4(Fe9Ni)5
_symmetry_space_group_name_H-M   'P 1'
_cell_length_a   7.42883406
_cell_length_b   7.42883406
_cell_length_c   10.50595787
_cell_angle_alpha   90.00000000
_cell_angle_beta   90.00000000
_cell_angle_gamma   90.00000000
_symmetry_Int_Tables_number   1
_chemical_formula_structural   Cr4(Fe9Ni)5
_chemical_formula_sum   'Cr4 Fe45 Ni5'
_cell_volume   579.79834247
_cell_formula_units_Z   1
loop_
 _symmetry_equiv_pos_site_id
 _symmetry_equiv_pos_as_xyz
  1  'x, y, z'
loop_
 _atom_site_type_symbol
 _atom_site_label
 _atom_site_symmetry_multiplicity
 _atom_site_fract_x
 _atom_site_fract_y
 _atom_site_fract_z
 _atom_site_occupancy
  Fe  Fe0  1  1.00184947  1.00169483  0.00306967  1
  Fe  Fe1  1  0.16870621  0.16921035  0.16917649  1
  Fe  Fe2  1  0.00316413  1.00204730  0.33590221  1
  Fe  Fe3  1  1.00078529  0.33699708  0.00372916  1
  Fe  Fe4  1  0.16782320  0.50233028  0.16853348  1
  Fe  Fe5  1  1.00256918  0.33640443  0.33570260  1
  Fe  Fe6  1  1.00235755  0.66902325  0.00282426  1
  Ni  Ni7  1  0.16926883  0.83768600  0.16813224  1
  Fe  Fe8  1  1.00095267  0.66926636  0.33533371  1
  Fe  Fe9  1  0.33585407  1.00251021  0.00420753  1
  Fe  Fe10  1  0.50281342  0.16950982  0.16890842  1
  Fe  Fe11  1  0.33558079  0.00389387  0.33563569  1
  Fe  Fe12  1  0.33741763  0.33668675  0.00339135  1
  Fe  Fe13  1  0.50371939  0.50205227  0.16809821  1
  Fe  Fe14  1  0.33583644  0.33421947  0.33604095  1
  Fe  Fe15  1  0.33503386  0.66852091  0.00352047  1
  Fe  Fe16  1  0.50335226  0.83615440  0.16833672  1
  Cr  Cr17  1  0.33563950  0.66920998  0.33500038  1
  Fe  Fe18  1  0.67001346  0.00407864  0.00332669  1
  Fe  Fe19  1  0.83619523  0.16957783  0.16890872  1
  Fe  Fe20  1  0.66897181  1.00227515  0.33607079  1
  Ni  Ni21  1  0.66897411  0.33564175  1.00245469  1
  Ni  Ni22  1  0.83499151  0.50203969  0.17020611  1
  Fe  Fe23  1  0.66930857  0.33643138  0.33560509  1
  Fe  Fe24  1  0.67032313  0.66745772  0.00378249  1
  Fe  Fe25  1  0.83647273  0.83527212  0.16937355  1
  Fe  Fe26  1  0.67115433  0.66900880  0.33567364  1
  Fe  Fe27  1  0.17008102  0.17012377  0.50188592  1
  Cr  Cr28  1  1.00213962  1.00086955  0.66935525  1
  Cr  Cr29  1  0.17000732  0.16949947  0.83678235  1
  Fe  Fe30  1  0.16846819  0.50166572  0.50343822  1
  Fe  Fe31  1  1.00115401  0.33834742  0.66828769  1
  Fe  Fe32  1  0.16950409  0.50508029  0.83574154  1
  Fe  Fe33  1  0.16927422  0.83592437  0.50262279  1
  Fe  Fe34  1  1.00235978  0.66736306  0.66955893  1
  Ni  Ni35  1  0.16906902  0.83396112  0.83598802  1
  Fe  Fe36  1  0.50281407  0.16948129  0.50292898  1
  Fe  Fe37  1  0.33780459  0.00281081  0.66786951  1
  Fe  Fe38  1  0.50424536  0.17087610  0.83587877  1
  Fe  Fe39  1  0.50361061  0.50149477  0.50377667  1
  Fe  Fe40  1  0.33712163  0.33652657  0.66828519  1
  Fe  Fe41  1  0.50231622  0.50068229  0.83583898  1
  Fe  Fe42  1  0.50345074  0.83674084  0.50356641  1
  Fe  Fe43  1  0.33510473  0.66837879  0.66851754  1
  Cr  Cr44  1  0.50203340  0.83639517  0.83545539  1
  Fe  Fe45  1  0.83481946  0.17028574  0.50215472  1
  Fe  Fe46  1  0.66842390  0.00401540  0.66831664  1
  Fe  Fe47  1  0.83319238  0.16979870  0.83665236  1
  Fe  Fe48  1  0.83563432  0.50230180  0.50231033  1
  Ni  Ni49  1  0.66840596  0.33597365  0.66968419  1
  Fe  Fe50  1  0.83589223  0.50253100  0.83643954  1
  Fe  Fe51  1  0.83499123  0.83512696  0.50175585  1
  Fe  Fe52  1  0.67025142  0.66805189  0.66826056  1
  Fe  Fe53  1  0.83758833  0.83537948  0.83658903  1
" 