3204,Ni9Fe62Cr27_8,-223.031783557541, 172.975681985561,Ni9Fe62Cr27,"# generated using pymatgen
 data_Cr16Fe33Ni5
_symmetry_space_group_name_H-M   'P 1'
_cell_length_a   7.47760306
_cell_length_b   7.47760306
_cell_length_c   10.57492767
_cell_angle_alpha   90.00000000
_cell_angle_beta   90.00000000
_cell_angle_gamma   90.00000000
_symmetry_Int_Tables_number   1
_chemical_formula_structural   Cr16Fe33Ni5
_chemical_formula_sum   'Cr16 Fe33 Ni5'
_cell_volume   591.29229605
_cell_formula_units_Z   1
loop_
 _symmetry_equiv_pos_site_id
 _symmetry_equiv_pos_as_xyz
  1  'x, y, z'
loop_
 _atom_site_type_symbol
 _atom_site_label
 _atom_site_symmetry_multiplicity
 _atom_site_fract_x
 _atom_site_fract_y
 _atom_site_fract_z
 _atom_site_occupancy
  Ni  Ni0  1  0.99784257  0.00038837  0.99736263  1
  Cr  Cr1  1  0.16518379  0.16605696  0.16697531  1
  Ni  Ni2  1  0.99711007  0.00140285  0.33513789  1
  Fe  Fe3  1  -0.00061960  0.33089412  0.00140214  1
  Ni  Ni4  1  0.16763814  0.49943313  0.16538478  1
  Cr  Cr5  1  0.99878790  0.33445867  0.33297019  1
  Fe  Fe6  1  0.00097845  0.66827551  -0.00002052  1
  Cr  Cr7  1  0.16287721  0.83292135  0.17035507  1
  Fe  Fe8  1  0.99758980  0.66474739  0.33439479  1
  Cr  Cr9  1  0.33357132  0.99759847  0.00147486  1
  Fe  Fe10  1  0.50054485  0.16735413  0.16543219  1
  Fe  Fe11  1  0.33237116  0.00251243  0.33192234  1
  Fe  Fe12  1  0.33206684  0.33193985  -0.00018840  1
  Cr  Cr13  1  0.50365573  0.49845124  0.16422746  1
  Fe  Fe14  1  0.33420999  0.33181503  0.33226707  1
  Fe  Fe15  1  0.33150414  0.66593050  -0.00006697  1
  Fe  Fe16  1  0.49757985  0.83055187  0.16837206  1
  Fe  Fe17  1  0.33190438  0.66179301  0.33169790  1
  Fe  Fe18  1  0.66785597  -0.00012180  -0.00020865  1
  Fe  Fe19  1  0.83312021  0.16712047  0.16564193  1
  Cr  Cr20  1  0.66447948  0.00265116  0.33174445  1
  Fe  Fe21  1  0.66727222  0.32789922  -0.00053425  1
  Fe  Fe22  1  0.83608108  0.49879495  0.16305638  1
  Fe  Fe23  1  0.66681903  0.33265156  0.33500186  1
  Fe  Fe24  1  0.66484827  0.67065776  0.99828028  1
  Cr  Cr25  1  0.83136700  0.83229594  0.16796413  1
  Fe  Fe26  1  0.66928626  0.66263012  0.33388305  1
  Cr  Cr27  1  0.16627802  0.16600192  0.50312095  1
  Fe  Fe28  1  0.99408958  -0.00054906  0.66566202  1
  Cr  Cr29  1  0.16395342  0.16585594  0.82844309  1
  Fe  Fe30  1  0.16801352  0.49896467  0.49808556  1
  Fe  Fe31  1  0.99425313  0.33470039  0.66448436  1
  Cr  Cr32  1  0.16630636  0.49836747  0.83358426  1
  Cr  Cr33  1  0.16616035  0.83378076  0.49654651  1
  Cr  Cr34  1  0.00018210  0.66704929  0.66339159  1
  Fe  Fe35  1  0.16518459  0.83300961  0.83252159  1
  Fe  Fe36  1  0.50014545  0.16658864  0.50141763  1
  Fe  Fe37  1  0.33534801  0.99584355  0.66648194  1
  Cr  Cr38  1  0.50059990  0.16642555  0.82988620  1
  Fe  Fe39  1  0.49935191  0.49546471  0.49765881  1
  Fe  Fe40  1  0.33452656  0.33684101  0.66433599  1
  Fe  Fe41  1  0.49930515  0.49885693  0.83400657  1
  Cr  Cr42  1  0.50015320  0.83040929  0.49616510  1
  Fe  Fe43  1  0.33421485  0.66435757  0.66570077  1
  Fe  Fe44  1  0.49886158  0.83087927  0.83249729  1
  Ni  Ni45  1  0.83135375  0.16792111  0.50210499  1
  Fe  Fe46  1  0.66762117  -0.00048902  0.66440713  1
  Fe  Fe47  1  0.83209969  0.16566031  0.83055951  1
  Fe  Fe48  1  0.83079586  0.49813565  0.49934903  1
  Ni  Ni49  1  0.66426225  0.33251166  0.66427680  1
  Cr  Cr50  1  0.83089068  0.49848710  0.83688344  1
  Fe  Fe51  1  0.83298044  0.83560634  0.49704563  1
  Cr  Cr52  1  0.66615306  0.66507376  0.66540186  1
  Fe  Fe53  1  0.83287589  0.83502789  0.83393798  1
" 