5190,Ni9Fe26Cr64_10,-213.400814747864, 185.108045873279,Ni9Fe26Cr64,"# generated using pymatgen
 data_Cr35Fe14Ni5
_symmetry_space_group_name_H-M   'P 1'
_cell_length_a   7.54046859
_cell_length_b   7.54046859
_cell_length_c   10.66383294
_cell_angle_alpha   90.00000000
_cell_angle_beta   90.00000000
_cell_angle_gamma   90.00000000
_symmetry_Int_Tables_number   1
_chemical_formula_structural   Cr35Fe14Ni5
_chemical_formula_sum   'Cr35 Fe14 Ni5'
_cell_volume   606.33132071
_cell_formula_units_Z   1
loop_
 _symmetry_equiv_pos_site_id
 _symmetry_equiv_pos_as_xyz
  1  'x, y, z'
loop_
 _atom_site_type_symbol
 _atom_site_label
 _atom_site_symmetry_multiplicity
 _atom_site_fract_x
 _atom_site_fract_y
 _atom_site_fract_z
 _atom_site_occupancy
  Fe  Fe0  1  -0.00466224  -0.00482294  -0.00458257  1
  Cr  Cr1  1  0.16195722  0.15997882  0.16278016  1
  Fe  Fe2  1  0.99371952  -0.00295777  0.33080790  1
  Cr  Cr3  1  -0.00430833  0.32919997  -0.00375363  1
  Cr  Cr4  1  0.16417362  0.49609942  0.16200856  1
  Cr  Cr5  1  0.99396071  0.32907580  0.33158566  1
  Cr  Cr6  1  0.99450894  0.66090426  -0.00434500  1
  Cr  Cr7  1  0.16238329  0.82918578  0.16401841  1
  Cr  Cr8  1  -0.00436509  0.65951687  0.32912459  1
  Cr  Cr9  1  0.33121491  0.99446266  -0.00406959  1
  Fe  Fe10  1  0.49423641  0.16204005  0.16410675  1
  Fe  Fe11  1  0.32956891  0.99359731  0.32925272  1
  Cr  Cr12  1  0.32804792  0.32816383  0.99199248  1
  Cr  Cr13  1  0.49645625  0.49283066  0.16306629  1
  Cr  Cr14  1  0.32638153  0.32794982  0.33086418  1
  Cr  Cr15  1  0.32990390  0.66303264  -0.00434739  1
  Fe  Fe16  1  0.49335256  0.82906423  0.16439217  1
  Fe  Fe17  1  0.33095455  0.66224381  0.33043640  1
  Cr  Cr18  1  0.66000247  0.99346834  -0.00358492  1
  Cr  Cr19  1  0.82699748  0.16284021  0.16273680  1
  Cr  Cr20  1  0.65977917  0.99443673  0.32782736  1
  Cr  Cr21  1  0.66150716  0.32804116  -0.00399012  1
  Fe  Fe22  1  0.82747319  0.49419857  0.16358770  1
  Ni  Ni23  1  0.66269116  0.32798567  0.32984067  1
  Cr  Cr24  1  0.66107856  0.66396466  0.99498708  1
  Cr  Cr25  1  0.83074674  0.82922673  0.16052786  1
  Cr  Cr26  1  0.66184554  0.66359471  0.32924630  1
  Fe  Fe27  1  0.16115828  0.15853657  0.49509373  1
  Fe  Fe28  1  -0.00458936  -0.00363416  0.65913755  1
  Cr  Cr29  1  0.16062858  0.15840359  0.82715038  1
  Fe  Fe30  1  0.16274484  0.49612282  0.49524729  1
  Cr  Cr31  1  -0.00361261  0.32841952  0.65778784  1
  Cr  Cr32  1  0.16347446  0.49694279  0.82904736  1
  Cr  Cr33  1  0.16270454  0.82878762  0.49429613  1
  Fe  Fe34  1  0.99359282  0.66008087  0.66028462  1
  Cr  Cr35  1  0.15904341  0.82973918  0.82730235  1
  Cr  Cr36  1  0.49638033  0.16329999  0.49399257  1
  Fe  Fe37  1  0.32937331  0.99443426  0.65950039  1
  Cr  Cr38  1  0.49551103  0.16512914  0.82870645  1
  Fe  Fe39  1  0.49785014  0.49700595  0.49523013  1
  Cr  Cr40  1  0.32601047  0.32833546  0.66280711  1
  Ni  Ni41  1  0.49663126  0.49664043  0.82625198  1
  Ni  Ni42  1  0.49289838  0.82574315  0.49365742  1
  Cr  Cr43  1  0.32990712  0.66150155  0.66051075  1
  Cr  Cr44  1  0.49537387  0.82610872  0.82591541  1
  Ni  Ni45  1  0.82990240  0.16358582  0.49340195  1
  Cr  Cr46  1  0.66029584  0.99301273  0.66103292  1
  Cr  Cr47  1  0.82940249  0.15981104  0.82871307  1
  Fe  Fe48  1  0.82458694  0.49544116  0.49547820  1
  Cr  Cr49  1  0.66270511  0.32940779  0.66031873  1
  Cr  Cr50  1  0.82511853  0.49664958  0.82766450  1
  Cr  Cr51  1  0.82855293  0.82909635  0.49839761  1
  Ni  Ni52  1  0.66087580  0.66261830  0.65972556  1
  Cr  Cr53  1  0.83097607  0.82856081  0.82593418  1
" 