7270,Ni9Fe62Cr27_19,-223.138885599878, 172.331502997961,Ni9Fe62Cr27,"# generated using pymatgen
 data_Cr16Fe33Ni5
_symmetry_space_group_name_H-M   'P 1'
_cell_length_a   7.47870893
_cell_length_b   7.47870893
_cell_length_c   10.57649160
_cell_angle_alpha   90.00000000
_cell_angle_beta   90.00000000
_cell_angle_gamma   90.00000000
_symmetry_Int_Tables_number   1
_chemical_formula_structural   Cr16Fe33Ni5
_chemical_formula_sum   'Cr16 Fe33 Ni5'
_cell_volume   591.55467408
_cell_formula_units_Z   1
loop_
 _symmetry_equiv_pos_site_id
 _symmetry_equiv_pos_as_xyz
  1  'x, y, z'
loop_
 _atom_site_type_symbol
 _atom_site_label
 _atom_site_symmetry_multiplicity
 _atom_site_fract_x
 _atom_site_fract_y
 _atom_site_fract_z
 _atom_site_occupancy
  Fe  Fe0  1  0.99599343  0.99917412  -0.00042805  1
  Fe  Fe1  1  0.16696772  0.16420234  0.16671406  1
  Fe  Fe2  1  0.00061985  0.99815729  0.33167764  1
  Fe  Fe3  1  0.99681834  0.33144365  0.99913665  1
  Fe  Fe4  1  0.16693657  0.50061623  0.16567188  1
  Cr  Cr5  1  0.00241111  0.33159475  0.33401289  1
  Fe  Fe6  1  0.99731986  0.66678646  -0.00011560  1
  Cr  Cr7  1  0.16647035  0.83157792  0.16278763  1
  Fe  Fe8  1  0.99916377  0.66677066  0.33176607  1
  Fe  Fe9  1  0.33683091  0.99920679  0.00027369  1
  Fe  Fe10  1  0.49951376  0.16259438  0.16652025  1
  Fe  Fe11  1  0.33215045  0.00033730  0.33251643  1
  Cr  Cr12  1  0.33297143  0.33250195  0.00112646  1
  Fe  Fe13  1  0.49868991  0.50143669  0.16763826  1
  Fe  Fe14  1  0.33315560  0.33295463  0.33150056  1
  Fe  Fe15  1  0.33510486  0.66696826  0.00092160  1
  Ni  Ni16  1  0.49881597  0.83327143  0.16779347  1
  Fe  Fe17  1  0.33400767  0.66452176  0.33238339  1
  Ni  Ni18  1  0.66664046  0.99878622  0.99916486  1
  Cr  Cr19  1  0.83010689  0.16581380  0.16572774  1
  Fe  Fe20  1  0.66448345  0.99697736  0.32964403  1
  Fe  Fe21  1  0.66557863  0.33030371  0.99674301  1
  Cr  Cr22  1  0.83190960  0.49870277  0.16600900  1
  Fe  Fe23  1  0.66276044  0.33439494  0.33290603  1
  Cr  Cr24  1  0.66538337  0.66818094  0.99809829  1
  Ni  Ni25  1  0.83124906  0.83293989  0.16590413  1
  Fe  Fe26  1  0.66426115  0.66661740  0.33118959  1
  Ni  Ni27  1  0.16782114  0.16737950  0.50064302  1
  Fe  Fe28  1  0.99921583  0.00021380  0.66572026  1
  Cr  Cr29  1  0.16618390  0.16474336  0.83064648  1
  Fe  Fe30  1  0.16605437  0.49725488  0.49976787  1
  Fe  Fe31  1  0.00156009  0.33275600  0.66407034  1
  Cr  Cr32  1  0.16492884  0.50028599  0.83355247  1
  Cr  Cr33  1  0.16675889  0.83368582  0.50024041  1
  Fe  Fe34  1  0.99646505  0.66485146  0.66606708  1
  Cr  Cr35  1  0.16582975  0.83261403  0.83481547  1
  Cr  Cr36  1  0.49835433  0.16552034  0.49927261  1
  Ni  Ni37  1  0.33230686  0.00046652  0.66483014  1
  Fe  Fe38  1  0.49983236  0.16493345  0.83267376  1
  Fe  Fe39  1  0.49932203  0.50004453  0.49745305  1
  Fe  Fe40  1  0.33173419  0.33132057  0.66503457  1
  Fe  Fe41  1  0.49940154  0.49798659  0.83302216  1
  Fe  Fe42  1  0.49916459  0.83370795  0.49800910  1
  Cr  Cr43  1  0.33440329  0.66513362  0.66472485  1
  Cr  Cr44  1  0.49836031  0.83442019  0.83086558  1
  Cr  Cr45  1  0.83228958  0.16574081  0.49879641  1
  Fe  Fe46  1  0.66519329  0.99802937  0.66772968  1
  Fe  Fe47  1  0.83180519  0.16396061  0.83421278  1
  Fe  Fe48  1  0.83296832  0.49966380  0.49905651  1
  Cr  Cr49  1  0.66695472  0.33414938  0.66920607  1
  Fe  Fe50  1  0.83334018  0.49981710  0.83315851  1
  Cr  Cr51  1  0.83048739  0.83143842  0.49821200  1
  Fe  Fe52  1  0.66702503  0.66678952  0.66618093  1
  Fe  Fe53  1  0.83382406  0.83415848  0.83265370  1
" 