5014,Ni9Fe87Cr2_12,-227.124960412722, 151.256720161817,Ni9Fe87Cr2,"# generated using pymatgen
 data_Cr2Fe47Ni5
_symmetry_space_group_name_H-M   'P 1'
_cell_length_a   7.41769144
_cell_length_b   7.41769144
_cell_length_c   10.49019984
_cell_angle_alpha   90.00000000
_cell_angle_beta   90.00000000
_cell_angle_gamma   90.00000000
_symmetry_Int_Tables_number   1
_chemical_formula_structural   Cr2Fe47Ni5
_chemical_formula_sum   'Cr2 Fe47 Ni5'
_cell_volume   577.19331056
_cell_formula_units_Z   1
loop_
 _symmetry_equiv_pos_site_id
 _symmetry_equiv_pos_as_xyz
  1  'x, y, z'
loop_
 _atom_site_type_symbol
 _atom_site_label
 _atom_site_symmetry_multiplicity
 _atom_site_fract_x
 _atom_site_fract_y
 _atom_site_fract_z
 _atom_site_occupancy
  Ni  Ni0  1  1.00292112  0.00502247  0.00372861  1
  Fe  Fe1  1  0.17008021  0.17092701  0.16965581  1
  Fe  Fe2  1  1.00323676  0.00352231  0.33557625  1
  Fe  Fe3  1  0.00415921  0.33639176  1.00183252  1
  Fe  Fe4  1  0.17112274  0.50185664  0.17171482  1
  Fe  Fe5  1  0.00393421  0.33553878  0.33819879  1
  Fe  Fe6  1  1.00232508  0.67277667  1.00166732  1
  Fe  Fe7  1  0.16870595  0.83708901  0.17056579  1
  Fe  Fe8  1  0.00413402  0.67099920  0.33796716  1
  Fe  Fe9  1  0.33672342  0.00380742  0.00340285  1
  Fe  Fe10  1  0.50388605  0.17084437  0.17019797  1
  Fe  Fe11  1  0.33703980  1.00301207  0.33708352  1
  Fe  Fe12  1  0.33723816  0.33447706  0.00364321  1
  Ni  Ni13  1  0.50410208  0.50248156  0.17087809  1
  Fe  Fe14  1  0.33694629  0.33657077  0.33656907  1
  Cr  Cr15  1  0.33778637  0.66877072  0.00413696  1
  Fe  Fe16  1  0.50564693  0.83644824  0.17181610  1
  Fe  Fe17  1  0.33735529  0.67033866  0.33649187  1
  Fe  Fe18  1  0.66990412  1.00208689  1.00214760  1
  Fe  Fe19  1  0.83576097  0.16866296  0.16991018  1
  Fe  Fe20  1  0.66968567  1.00315124  0.33848532  1
  Fe  Fe21  1  0.66849853  0.33588664  1.00245658  1
  Cr  Cr22  1  0.83657863  0.50379015  0.16869736  1
  Fe  Fe23  1  0.66898918  0.33576961  0.33739393  1
  Ni  Ni24  1  0.66868795  0.67042845  1.00236786  1
  Fe  Fe25  1  0.83549482  0.83804748  0.16904068  1
  Fe  Fe26  1  0.66840989  0.67106651  0.33672962  1
  Fe  Fe27  1  0.17099357  0.16894662  0.50339280  1
  Fe  Fe28  1  1.00255939  0.00352915  0.67089117  1
  Fe  Fe29  1  0.16986290  0.16953767  0.83697723  1
  Fe  Fe30  1  0.17104731  0.50417716  0.50381561  1
  Fe  Fe31  1  1.00217184  0.33571763  0.66950442  1
  Fe  Fe32  1  0.16915304  0.50232704  0.83495434  1
  Fe  Fe33  1  0.17069772  0.83686762  0.50339447  1
  Fe  Fe34  1  1.00233188  0.67075820  0.66976749  1
  Fe  Fe35  1  0.16878876  0.83822245  0.83640624  1
  Fe  Fe36  1  0.50347089  0.16882621  0.50398482  1
  Fe  Fe37  1  0.33776650  1.00308466  0.66950874  1
  Fe  Fe38  1  0.50359401  0.16949349  0.83582108  1
  Fe  Fe39  1  0.50320045  0.50413144  0.50244793  1
  Fe  Fe40  1  0.33757820  0.33582129  0.67002756  1
  Fe  Fe41  1  0.50472103  0.50213276  0.83676537  1
  Ni  Ni42  1  0.50304748  0.83672490  0.50375251  1
  Fe  Fe43  1  0.33782918  0.67106363  0.67002084  1
  Fe  Fe44  1  0.50471248  0.83769691  0.83462984  1
  Fe  Fe45  1  0.83563470  0.16863291  0.50372824  1
  Ni  Ni46  1  0.67079238  0.00358194  0.66978144  1
  Fe  Fe47  1  0.83651117  0.16922858  0.83647374  1
  Fe  Fe48  1  0.83574448  0.50432736  0.50294208  1
  Fe  Fe49  1  0.67022279  0.33597794  0.66984870  1
  Fe  Fe50  1  0.83628796  0.50361546  0.83720221  1
  Fe  Fe51  1  0.83552158  0.83708883  0.50377348  1
  Fe  Fe52  1  0.66969948  0.67095536  0.67043154  1
  Fe  Fe53  1  0.83635915  0.83742194  0.83705407  1
" 