8768,Ni9Fe84Cr6_14,-226.768096655362, 153.311162718401,Ni9Fe84Cr6,"# generated using pymatgen
 data_Cr4(Fe9Ni)5
_symmetry_space_group_name_H-M   'P 1'
_cell_length_a   7.42895542
_cell_length_b   7.42895542
_cell_length_c   10.50612950
_cell_angle_alpha   90.00000000
_cell_angle_beta   90.00000000
_cell_angle_gamma   90.00000000
_symmetry_Int_Tables_number   1
_chemical_formula_structural   Cr4(Fe9Ni)5
_chemical_formula_sum   'Cr4 Fe45 Ni5'
_cell_volume   579.82675867
_cell_formula_units_Z   1
loop_
 _symmetry_equiv_pos_site_id
 _symmetry_equiv_pos_as_xyz
  1  'x, y, z'
loop_
 _atom_site_type_symbol
 _atom_site_label
 _atom_site_symmetry_multiplicity
 _atom_site_fract_x
 _atom_site_fract_y
 _atom_site_fract_z
 _atom_site_occupancy
  Fe  Fe0  1  0.00289698  0.00339921  0.00288429  1
  Fe  Fe1  1  0.16895715  0.16901453  0.17005807  1
  Ni  Ni2  1  1.00202164  1.00157821  0.33634334  1
  Fe  Fe3  1  1.00194863  0.33475145  0.00289505  1
  Fe  Fe4  1  0.16939682  0.50314259  0.17014982  1
  Fe  Fe5  1  0.00317948  0.33523302  0.33593597  1
  Fe  Fe6  1  1.00165297  0.66953801  0.00340677  1
  Fe  Fe7  1  0.16938636  0.83553354  0.16955025  1
  Fe  Fe8  1  0.00314243  0.66930949  0.33599724  1
  Fe  Fe9  1  0.33610421  1.00102902  1.00171188  1
  Fe  Fe10  1  0.50233110  0.16862360  0.17132508  1
  Fe  Fe11  1  0.33523355  0.00320555  0.33596667  1
  Cr  Cr12  1  0.33637961  0.33527852  1.00254052  1
  Ni  Ni13  1  0.50234108  0.50461446  0.17031284  1
  Ni  Ni14  1  0.33604619  0.33565667  0.33517587  1
  Fe  Fe15  1  0.33764876  0.67160686  0.00339978  1
  Fe  Fe16  1  0.50263283  0.83519872  0.16848191  1
  Fe  Fe17  1  0.33478788  0.66969985  0.33473057  1
  Fe  Fe18  1  0.66868966  1.00073495  1.00218793  1
  Fe  Fe19  1  0.83640236  0.16861298  0.17035389  1
  Fe  Fe20  1  0.66930993  0.00316942  0.33596685  1
  Cr  Cr21  1  0.66906017  0.33658621  1.00174105  1
  Fe  Fe22  1  0.83606533  0.50344628  0.16990314  1
  Fe  Fe23  1  0.66969690  0.33479149  0.33449767  1
  Fe  Fe24  1  0.66839029  0.67066178  1.00253081  1
  Fe  Fe25  1  0.83567086  0.83563239  0.16958112  1
  Fe  Fe26  1  0.66976052  0.66973303  0.33473118  1
  Fe  Fe27  1  0.16946135  0.16948984  0.50255192  1
  Fe  Fe28  1  0.00289710  0.00293472  0.66891115  1
  Ni  Ni29  1  0.16727002  0.16736661  0.83531362  1
  Fe  Fe30  1  0.16786678  0.50232636  0.50256030  1
  Fe  Fe31  1  1.00195056  0.33485143  0.66886000  1
  Cr  Cr32  1  0.16888659  0.50161981  0.83535425  1
  Fe  Fe33  1  0.16901655  0.83587273  0.50221351  1
  Fe  Fe34  1  1.00165341  0.66990220  0.66828729  1
  Fe  Fe35  1  0.16987903  0.83818084  0.83592882  1
  Fe  Fe36  1  0.50232789  0.16793835  0.50225703  1
  Fe  Fe37  1  0.33597281  1.00251616  0.67001366  1
  Fe  Fe38  1  0.50172389  0.16711331  0.83410388  1
  Cr  Cr39  1  0.50201302  0.50285367  0.50328406  1
  Fe  Fe40  1  0.33556014  0.33391085  0.66914013  1
  Fe  Fe41  1  0.50366999  0.50429321  0.83454608  1
  Fe  Fe42  1  0.50263264  0.83756980  0.50335278  1
  Fe  Fe43  1  0.33627875  0.67126195  0.66956358  1
  Ni  Ni44  1  0.50379079  0.83558786  0.83634993  1
  Fe  Fe45  1  0.83590118  0.16908517  0.50225270  1
  Fe  Fe46  1  0.66882130  1.00221627  0.66953827  1
  Fe  Fe47  1  0.83699690  0.16806851  0.83508228  1
  Fe  Fe48  1  0.83759476  0.50263167  0.50280533  1
  Fe  Fe49  1  0.67017719  0.33516017  0.67028824  1
  Fe  Fe50  1  0.83509831  0.50338100  0.83497966  1
  Fe  Fe51  1  0.83604101  0.83597225  0.50218271  1
  Fe  Fe52  1  0.66976099  0.67031445  0.67043364  1
  Fe  Fe53  1  0.83606668  0.83624225  0.83592895  1
" 