7350,Ni9Fe57Cr33_2,-221.872428011655, 170.751412079752,Ni9Fe57Cr33,"# generated using pymatgen
 data_Cr19(Fe6Ni)5
_symmetry_space_group_name_H-M   'P 1'
_cell_length_a   7.48960753
_cell_length_b   7.48960753
_cell_length_c   10.59190454
_cell_angle_alpha   90.00000000
_cell_angle_beta   90.00000000
_cell_angle_gamma   90.00000000
_symmetry_Int_Tables_number   1
_chemical_formula_structural   Cr19(Fe6Ni)5
_chemical_formula_sum   'Cr19 Fe30 Ni5'
_cell_volume   594.14463305
_cell_formula_units_Z   1
loop_
 _symmetry_equiv_pos_site_id
 _symmetry_equiv_pos_as_xyz
  1  'x, y, z'
loop_
 _atom_site_type_symbol
 _atom_site_label
 _atom_site_symmetry_multiplicity
 _atom_site_fract_x
 _atom_site_fract_y
 _atom_site_fract_z
 _atom_site_occupancy
  Ni  Ni0  1  0.99749231  0.00014600  0.99784773  1
  Cr  Cr1  1  0.16233853  0.16214346  0.16411971  1
  Fe  Fe2  1  -0.00110374  0.99780107  0.33203783  1
  Fe  Fe3  1  0.99760393  0.33148231  0.99745743  1
  Fe  Fe4  1  0.16447163  0.50064181  0.16385809  1
  Cr  Cr5  1  0.99833804  0.33385672  0.33451971  1
  Fe  Fe6  1  0.00027971  0.66457912  0.99744260  1
  Fe  Fe7  1  0.16367521  0.82898322  0.16488121  1
  Fe  Fe8  1  -0.00054321  0.66658749  0.33454278  1
  Cr  Cr9  1  0.33483995  -0.00057231  0.00087074  1
  Fe  Fe10  1  0.50258485  0.16829539  0.16465055  1
  Fe  Fe11  1  0.33095351  0.99720393  0.33250294  1
  Fe  Fe12  1  0.33107933  0.33471298  0.00060395  1
  Ni  Ni13  1  0.49768269  0.49812153  0.16419973  1
  Cr  Cr14  1  0.33295565  0.33270329  0.32893577  1
  Fe  Fe15  1  0.32886433  0.66260331  -0.00059154  1
  Cr  Cr16  1  0.49715500  0.82892674  0.16497682  1
  Fe  Fe17  1  0.33094378  0.66531814  0.33161376  1
  Fe  Fe18  1  0.66804620  0.00134464  -0.00128709  1
  Ni  Ni19  1  0.83348210  0.16600020  0.16451586  1
  Cr  Cr20  1  0.66413820  -0.00037055  0.32974367  1
  Fe  Fe21  1  0.66561484  0.32961076  0.00002193  1
  Cr  Cr22  1  0.83001294  0.49757612  0.16633016  1
  Fe  Fe23  1  0.66466219  0.33183350  0.33212260  1
  Cr  Cr24  1  0.66423081  0.66591196  0.99624457  1
  Cr  Cr25  1  0.83576524  0.83255175  0.16361576  1
  Fe  Fe26  1  0.66461869  0.66301524  0.33202404  1
  Cr  Cr27  1  0.16563161  0.16143197  0.50054260  1
  Cr  Cr28  1  0.99501443  -0.00124708  0.66481090  1
  Fe  Fe29  1  0.16448235  0.16742287  0.83379060  1
  Fe  Fe30  1  0.16671028  0.49927071  0.49825349  1
  Cr  Cr31  1  -0.00020993  0.33321903  0.66620481  1
  Fe  Fe32  1  0.16684617  0.49747118  0.83383027  1
  Fe  Fe33  1  0.16654812  0.82872546  0.49741119  1
  Cr  Cr34  1  0.99784379  0.66369949  0.66554716  1
  Cr  Cr35  1  0.16428394  0.83466497  0.83342209  1
  Ni  Ni36  1  0.49732601  0.16432761  0.49883921  1
  Fe  Fe37  1  0.33108683  0.99791378  0.66408384  1
  Cr  Cr38  1  0.49691457  0.16729060  0.83185229  1
  Cr  Cr39  1  0.50185429  0.49812158  0.50050523  1
  Fe  Fe40  1  0.33203831  0.33106307  0.66412449  1
  Cr  Cr41  1  0.49970088  0.49763607  0.82874010  1
  Fe  Fe42  1  0.49752496  0.83224256  0.49825836  1
  Fe  Fe43  1  0.32994470  0.66572768  0.66342569  1
  Cr  Cr44  1  0.49755913  0.83037203  0.82924917  1
  Fe  Fe45  1  0.82769739  0.16818270  0.49735021  1
  Cr  Cr46  1  0.66453058  0.99708692  0.66622056  1
  Fe  Fe47  1  0.83224636  0.16582150  0.83527672  1
  Ni  Ni48  1  0.83108892  0.50128825  0.49835452  1
  Fe  Fe49  1  0.66860423  0.33057054  0.66360679  1
  Fe  Fe50  1  0.83228265  0.49738104  0.83242679  1
  Fe  Fe51  1  0.83021818  0.83097791  0.49614717  1
  Fe  Fe52  1  0.66854555  0.66444920  0.66443948  1
  Fe  Fe53  1  0.83217458  0.83255222  0.83415653  1
" 