1105,Ni9Fe57Cr33_6,-222.117274160817, 170.682529788831,Ni9Fe57Cr33,"# generated using pymatgen
 data_Cr19(Fe6Ni)5
_symmetry_space_group_name_H-M   'P 1'
_cell_length_a   7.49796562
_cell_length_b   7.49796562
_cell_length_c   10.60372467
_cell_angle_alpha   90.00000000
_cell_angle_beta   90.00000000
_cell_angle_gamma   90.00000000
_symmetry_Int_Tables_number   1
_chemical_formula_structural   Cr19(Fe6Ni)5
_chemical_formula_sum   'Cr19 Fe30 Ni5'
_cell_volume   596.13597701
_cell_formula_units_Z   1
loop_
 _symmetry_equiv_pos_site_id
 _symmetry_equiv_pos_as_xyz
  1  'x, y, z'
loop_
 _atom_site_type_symbol
 _atom_site_label
 _atom_site_symmetry_multiplicity
 _atom_site_fract_x
 _atom_site_fract_y
 _atom_site_fract_z
 _atom_site_occupancy
  Fe  Fe0  1  0.99701601  -0.00164173  0.99704279  1
  Cr  Cr1  1  0.16416276  0.16536534  0.16130874  1
  Fe  Fe2  1  0.99483845  0.00006453  0.33078010  1
  Fe  Fe3  1  0.99765524  0.33064237  -0.00177004  1
  Ni  Ni4  1  0.16651712  0.49680128  0.16722749  1
  Fe  Fe5  1  0.99710729  0.33183503  0.33140919  1
  Cr  Cr6  1  0.99789519  0.66256865  -0.00163056  1
  Cr  Cr7  1  0.16269460  0.82905951  0.16452351  1
  Fe  Fe8  1  -0.00088685  0.66162320  0.33004409  1
  Fe  Fe9  1  0.33175165  0.99651635  0.99599839  1
  Fe  Fe10  1  0.49913461  0.16752004  0.16345918  1
  Cr  Cr11  1  0.33215531  0.00010635  0.33296033  1
  Fe  Fe12  1  0.33295458  0.33387760  -0.00131250  1
  Fe  Fe13  1  0.49412693  0.49535143  0.16372527  1
  Fe  Fe14  1  0.33111696  0.33401140  0.32946245  1
  Fe  Fe15  1  0.33175645  0.66359447  0.99728755  1
  Cr  Cr16  1  0.49815455  0.83156563  0.16406384  1
  Fe  Fe17  1  0.33041229  0.66147071  0.33026937  1
  Ni  Ni18  1  0.66340572  -0.00031754  0.00075737  1
  Fe  Fe19  1  0.83025105  0.16295485  0.16458958  1
  Fe  Fe20  1  0.66714105  0.00069453  0.32910969  1
  Fe  Fe21  1  0.66354077  0.33061091  -0.00144846  1
  Cr  Cr22  1  0.83126779  0.49570074  0.16344253  1
  Fe  Fe23  1  0.66565179  0.32906150  0.33035218  1
  Cr  Cr24  1  0.66310011  0.66259496  0.99618910  1
  Fe  Fe25  1  0.83194801  0.83420278  0.16428619  1
  Cr  Cr26  1  0.66531110  0.66330741  0.32975036  1
  Cr  Cr27  1  0.16352844  0.16780913  0.49914923  1
  Cr  Cr28  1  0.00042535  0.00018337  0.66610864  1
  Fe  Fe29  1  0.16543911  0.16492526  0.83386965  1
  Fe  Fe30  1  0.16169479  0.49681178  0.49721684  1
  Fe  Fe31  1  0.99597784  0.33321374  0.66364392  1
  Cr  Cr32  1  0.16550808  0.49775834  0.83066771  1
  Cr  Cr33  1  0.16455003  0.82647862  0.49571186  1
  Fe  Fe34  1  -0.00152005  0.66372536  0.66537963  1
  Ni  Ni35  1  0.16618475  0.83047764  0.83388620  1
  Cr  Cr36  1  0.50149857  0.16599072  0.49783058  1
  Cr  Cr37  1  0.33229104  0.99733727  0.66699641  1
  Cr  Cr38  1  0.49907476  0.16689564  0.83246056  1
  Cr  Cr39  1  0.49544931  0.49795288  0.49773101  1
  Fe  Fe40  1  0.33134150  0.33330373  0.66579271  1
  Ni  Ni41  1  0.49784145  0.49767906  0.83194247  1
  Fe  Fe42  1  0.49944236  0.83141376  0.49852416  1
  Fe  Fe43  1  0.33194776  0.66449887  0.66645676  1
  Fe  Fe44  1  0.49668070  0.82977404  0.83271683  1
  Ni  Ni45  1  0.82997900  0.16632035  0.49590641  1
  Fe  Fe46  1  0.66558737  -0.00196970  0.66447777  1
  Cr  Cr47  1  0.83077763  0.16610622  0.83279342  1
  Fe  Fe48  1  0.83304688  0.49507620  0.49830645  1
  Fe  Fe49  1  0.66629096  0.33273938  0.66463707  1
  Fe  Fe50  1  0.82962597  0.49703267  0.82973051  1
  Cr  Cr51  1  0.83105384  0.83233322  0.49637221  1
  Fe  Fe52  1  0.66324718  0.66376483  0.66592589  1
  Cr  Cr53  1  0.83151979  0.83189025  0.83255235  1
" 