941,Ni9Fe26Cr64_8,-213.722517155243, 186.969776245504,Ni9Fe26Cr64,"# generated using pymatgen
 data_Cr35Fe14Ni5
_symmetry_space_group_name_H-M   'P 1'
_cell_length_a   7.55073884
_cell_length_b   7.55073884
_cell_length_c   10.67835727
_cell_angle_alpha   90.00000000
_cell_angle_beta   90.00000000
_cell_angle_gamma   90.00000000
_symmetry_Int_Tables_number   1
_chemical_formula_structural   Cr35Fe14Ni5
_chemical_formula_sum   'Cr35 Fe14 Ni5'
_cell_volume   608.81219868
_cell_formula_units_Z   1
loop_
 _symmetry_equiv_pos_site_id
 _symmetry_equiv_pos_as_xyz
  1  'x, y, z'
loop_
 _atom_site_type_symbol
 _atom_site_label
 _atom_site_symmetry_multiplicity
 _atom_site_fract_x
 _atom_site_fract_y
 _atom_site_fract_z
 _atom_site_occupancy
  Fe  Fe0  1  -0.00534663  0.99261937  0.99345477  1
  Cr  Cr1  1  0.15826705  0.15824641  0.16262013  1
  Fe  Fe2  1  0.99261238  0.99324857  0.32841046  1
  Cr  Cr3  1  -0.00491625  0.32704764  -0.00371757  1
  Fe  Fe4  1  0.16099711  0.49596905  0.16062949  1
  Cr  Cr5  1  -0.00370121  0.32978726  0.32531293  1
  Cr  Cr6  1  -0.00257479  0.66068546  0.99176122  1
  Cr  Cr7  1  0.16098262  0.82937100  0.16007560  1
  Fe  Fe8  1  -0.00496324  0.66082954  0.32828294  1
  Cr  Cr9  1  0.32717923  0.99314659  0.99102345  1
  Cr  Cr10  1  0.49439743  0.16233248  0.16127504  1
  Cr  Cr11  1  0.33089782  -0.00483116  0.32938434  1
  Cr  Cr12  1  0.32518267  0.32926126  -0.00501741  1
  Cr  Cr13  1  0.49627761  0.49637912  0.15750016  1
  Cr  Cr14  1  0.32710710  0.33014039  0.33047716  1
  Fe  Fe15  1  0.32684659  0.66092069  0.99319519  1
  Cr  Cr16  1  0.49377861  0.82496620  0.15910016  1
  Cr  Cr17  1  0.32604364  0.65812625  0.32492715  1
  Cr  Cr18  1  0.66240083  0.99445200  -0.00500659  1
  Fe  Fe19  1  0.82732606  0.15937762  0.16117864  1
  Fe  Fe20  1  0.66139655  -0.00411920  0.32887888  1
  Fe  Fe21  1  0.66071762  0.32831025  -0.00538015  1
  Cr  Cr22  1  0.82509944  0.49392355  0.15845232  1
  Cr  Cr23  1  0.66022590  0.32595390  0.32809891  1
  Ni  Ni24  1  0.66182238  0.66229731  -0.00540372  1
  Cr  Cr25  1  0.82891151  0.82814186  0.16428419  1
  Cr  Cr26  1  0.66108759  0.66351802  0.33094285  1
  Cr  Cr27  1  0.16341178  0.16006476  0.49609683  1
  Cr  Cr28  1  0.99325778  0.99164889  0.66383279  1
  Cr  Cr29  1  0.16321260  0.15858540  0.82484401  1
  Fe  Fe30  1  0.16401559  0.49417874  0.49551423  1
  Cr  Cr31  1  -0.00178492  0.33106191  0.66197994  1
  Fe  Fe32  1  0.16250406  0.49610211  0.82685556  1
  Cr  Cr33  1  0.15829032  0.82839120  0.49469064  1
  Fe  Fe34  1  -0.00272261  0.66087901  0.66224079  1
  Ni  Ni35  1  0.16188257  0.82741999  0.82810892  1
  Ni  Ni36  1  0.49252378  0.16384065  0.49720108  1
  Fe  Fe37  1  0.32901186  -0.00381263  0.66166688  1
  Fe  Fe38  1  0.49270194  0.16139869  0.82580038  1
  Ni  Ni39  1  0.49339133  0.49187129  0.49516152  1
  Ni  Ni40  1  0.32824927  0.32822968  0.65892170  1
  Cr  Cr41  1  0.49656178  0.49352459  0.83094295  1
  Cr  Cr42  1  0.49298312  0.82817562  0.49305273  1
  Cr  Cr43  1  0.32566056  0.65930003  0.66239431  1
  Cr  Cr44  1  0.49177277  0.82574043  0.83002038  1
  Cr  Cr45  1  0.82916022  0.16082637  0.49140837  1
  Cr  Cr46  1  0.65906179  -0.00539324  0.65894699  1
  Cr  Cr47  1  0.82834921  0.16374325  0.83194457  1
  Cr  Cr48  1  0.82833636  0.49696511  0.49685314  1
  Cr  Cr49  1  0.65786462  0.32568341  0.66130921  1
  Cr  Cr50  1  0.82507987  0.49459407  0.82787972  1
  Fe  Fe51  1  0.82841801  0.82907218  0.49321181  1
  Cr  Cr52  1  0.66194657  0.66338145  0.65878473  1
  Cr  Cr53  1  0.82954030  0.82516178  0.82633140  1
" 