4837,Ni9Fe87Cr2_4,-226.854071278186, 151.492056287522,Ni9Fe87Cr2,"# generated using pymatgen
 data_Cr2Fe47Ni5
_symmetry_space_group_name_H-M   'P 1'
_cell_length_a   7.41579842
_cell_length_b   7.41579842
_cell_length_c   10.48752270
_cell_angle_alpha   90.00000000
_cell_angle_beta   90.00000000
_cell_angle_gamma   90.00000000
_symmetry_Int_Tables_number   1
_chemical_formula_structural   Cr2Fe47Ni5
_chemical_formula_sum   'Cr2 Fe47 Ni5'
_cell_volume   576.75151783
_cell_formula_units_Z   1
loop_
 _symmetry_equiv_pos_site_id
 _symmetry_equiv_pos_as_xyz
  1  'x, y, z'
loop_
 _atom_site_type_symbol
 _atom_site_label
 _atom_site_symmetry_multiplicity
 _atom_site_fract_x
 _atom_site_fract_y
 _atom_site_fract_z
 _atom_site_occupancy
  Fe  Fe0  1  0.00376594  1.00314151  1.00261836  1
  Fe  Fe1  1  0.17102494  0.16921509  0.16928572  1
  Fe  Fe2  1  0.00425197  1.00258981  0.33788159  1
  Fe  Fe3  1  0.00380700  0.33762409  1.00265052  1
  Fe  Fe4  1  0.16873824  0.50439746  0.16954750  1
  Fe  Fe5  1  1.00243964  0.33781189  0.33788164  1
  Fe  Fe6  1  1.00290034  0.66960161  0.00400676  1
  Fe  Fe7  1  0.16967638  0.83675205  0.17040889  1
  Ni  Ni8  1  1.00263461  0.67093960  0.33681317  1
  Fe  Fe9  1  0.33756830  0.00429664  1.00326014  1
  Fe  Fe10  1  0.50281035  0.16946883  0.16836682  1
  Fe  Fe11  1  0.33619883  1.00122537  0.33661546  1
  Fe  Fe12  1  0.33755579  0.33650111  1.00344970  1
  Fe  Fe13  1  0.50476779  0.50381573  0.16955543  1
  Cr  Cr14  1  0.33763001  0.33589161  0.33650863  1
  Fe  Fe15  1  0.33731187  0.66956836  0.00348875  1
  Fe  Fe16  1  0.50357473  0.83708027  0.17015418  1
  Fe  Fe17  1  0.33652886  0.67152851  0.33704479  1
  Fe  Fe18  1  0.66903262  1.00338825  1.00236223  1
  Cr  Cr19  1  0.83678038  0.17063266  0.16986244  1
  Fe  Fe20  1  0.66991672  1.00250913  0.33788040  1
  Ni  Ni21  1  0.66850067  0.33727960  1.00261458  1
  Fe  Fe22  1  0.83685763  0.50516219  0.17001011  1
  Fe  Fe23  1  0.67147911  0.33814403  0.33761696  1
  Fe  Fe24  1  0.67015325  0.66961212  0.00348630  1
  Fe  Fe25  1  0.83711275  0.83479748  0.17037827  1
  Fe  Fe26  1  0.67011621  0.66971658  0.33701262  1
  Fe  Fe27  1  0.16926866  0.16980992  0.50425888  1
  Fe  Fe28  1  1.00319777  0.00371148  0.66986569  1
  Fe  Fe29  1  0.17067983  0.17005283  0.83681968  1
  Fe  Fe30  1  0.16902042  0.50402500  0.50403095  1
  Fe  Fe31  1  1.00330126  0.33646117  0.66983397  1
  Fe  Fe32  1  0.17057247  0.50300474  0.83678691  1
  Fe  Fe33  1  0.16989897  0.83653169  0.50316894  1
  Fe  Fe34  1  0.00352368  0.67019299  0.66974493  1
  Fe  Fe35  1  0.17064477  0.83730875  0.83678889  1
  Fe  Fe36  1  0.50483821  0.16980191  0.50478039  1
  Fe  Fe37  1  0.33697739  0.00367578  0.67049118  1
  Ni  Ni38  1  0.50401947  0.17029695  0.83713222  1
  Ni  Ni39  1  0.50359915  0.50502980  0.50453320  1
  Fe  Fe40  1  0.33723107  0.33685527  0.66990422  1
  Fe  Fe41  1  0.50370957  0.50268507  0.83651973  1
  Fe  Fe42  1  0.50394402  0.83680405  0.50342518  1
  Fe  Fe43  1  0.33704268  0.66983751  0.66983531  1
  Fe  Fe44  1  0.50338419  0.83737538  0.83678706  1
  Ni  Ni45  1  0.83728497  0.17001547  0.50368757  1
  Fe  Fe46  1  0.67019321  0.00389848  0.67012415  1
  Fe  Fe47  1  0.83601721  0.17037978  0.83674321  1
  Fe  Fe48  1  0.83653183  0.50313341  0.50313638  1
  Fe  Fe49  1  0.66983513  0.33652925  0.67035574  1
  Fe  Fe50  1  0.83608308  0.50271808  0.83721861  1
  Fe  Fe51  1  0.83652196  0.83655588  0.50316801  1
  Fe  Fe52  1  0.66979867  0.66994064  0.66986904  1
  Fe  Fe53  1  0.83633736  0.83726911  0.83681993  1
" 