4828,Ni9Fe84Cr6_4,-226.513035099976, 152.781089124067,Ni9Fe84Cr6,"# generated using pymatgen
 data_Cr4(Fe9Ni)5
_symmetry_space_group_name_H-M   'P 1'
_cell_length_a   7.42707965
_cell_length_b   7.42707965
_cell_length_c   10.50347677
_cell_angle_alpha   90.00000000
_cell_angle_beta   90.00000000
_cell_angle_gamma   90.00000000
_symmetry_Int_Tables_number   1
_chemical_formula_structural   Cr4(Fe9Ni)5
_chemical_formula_sum   'Cr4 Fe45 Ni5'
_cell_volume   579.38766201
_cell_formula_units_Z   1
loop_
 _symmetry_equiv_pos_site_id
 _symmetry_equiv_pos_as_xyz
  1  'x, y, z'
loop_
 _atom_site_type_symbol
 _atom_site_label
 _atom_site_symmetry_multiplicity
 _atom_site_fract_x
 _atom_site_fract_y
 _atom_site_fract_z
 _atom_site_occupancy
  Fe  Fe0  1  0.00557750  1.00116832  1.00217494  1
  Fe  Fe1  1  0.16960287  0.17006937  0.17078893  1
  Fe  Fe2  1  0.00691114  0.00316882  0.33649244  1
  Fe  Fe3  1  0.00585901  0.33637174  1.00237367  1
  Fe  Fe4  1  0.17109872  0.50318516  0.16984931  1
  Fe  Fe5  1  0.00531263  0.33529341  0.33782268  1
  Fe  Fe6  1  0.00458380  0.67041339  1.00093525  1
  Fe  Fe7  1  0.16947313  0.83507627  0.16858342  1
  Fe  Fe8  1  0.00348867  0.67005661  0.33712472  1
  Fe  Fe9  1  0.33528922  1.00179819  1.00206111  1
  Fe  Fe10  1  0.50021247  0.16990803  0.16800868  1
  Fe  Fe11  1  0.33576569  0.00328516  0.33697016  1
  Fe  Fe12  1  0.33525433  0.33600785  0.00317539  1
  Fe  Fe13  1  0.49923060  0.50365996  0.16941962  1
  Ni  Ni14  1  0.33464467  0.33762368  0.33611899  1
  Fe  Fe15  1  0.33548080  0.67015484  1.00232769  1
  Fe  Fe16  1  0.50127132  0.83413305  0.17041713  1
  Ni  Ni17  1  0.33337896  0.66926465  0.33596679  1
  Fe  Fe18  1  0.66771955  1.00128011  0.00404769  1
  Fe  Fe19  1  0.83821629  0.16776146  0.16647826  1
  Cr  Cr20  1  0.67188307  1.00219237  0.33612675  1
  Fe  Fe21  1  0.66658147  0.33663737  0.00271404  1
  Cr  Cr22  1  0.83561358  0.50258012  0.16943586  1
  Cr  Cr23  1  0.66787129  0.33386893  0.33847588  1
  Fe  Fe24  1  0.66790324  0.67049009  1.00154781  1
  Fe  Fe25  1  0.83763452  0.83624134  0.16822824  1
  Fe  Fe26  1  0.66589934  0.66863515  0.33775902  1
  Ni  Ni27  1  0.16865124  0.16988998  0.50273411  1
  Fe  Fe28  1  0.00502102  1.00151951  0.66918274  1
  Fe  Fe29  1  0.17127725  0.16844854  0.83443169  1
  Fe  Fe30  1  0.17073276  0.50337227  0.50215141  1
  Fe  Fe31  1  0.00429732  0.33747991  0.66817058  1
  Fe  Fe32  1  0.16971328  0.50272214  0.83571796  1
  Fe  Fe33  1  0.17090221  0.83646382  0.50360450  1
  Fe  Fe34  1  0.00376836  0.66959912  0.67025600  1
  Ni  Ni35  1  0.17131295  0.83549650  0.83500674  1
  Fe  Fe36  1  0.49850249  0.16782944  0.50455551  1
  Fe  Fe37  1  0.33555706  1.00177865  0.66871257  1
  Fe  Fe38  1  0.49996735  0.16851167  0.83577652  1
  Fe  Fe39  1  0.49880393  0.50350503  0.50320908  1
  Fe  Fe40  1  0.33515913  0.33603168  0.66837796  1
  Fe  Fe41  1  0.50148531  0.50293496  0.83569129  1
  Ni  Ni42  1  0.50240255  0.83462283  0.50261055  1
  Fe  Fe43  1  0.33584521  0.66989452  0.66893228  1
  Fe  Fe44  1  0.50278160  0.83665691  0.83442781  1
  Fe  Fe45  1  0.83779194  0.16789899  0.50613706  1
  Fe  Fe46  1  0.66796999  1.00130043  0.66764308  1
  Cr  Cr47  1  0.83577686  0.17088737  0.83611993  1
  Fe  Fe48  1  0.83716067  0.50411670  0.50358589  1
  Fe  Fe49  1  0.66797525  0.33760942  0.66808881  1
  Fe  Fe50  1  0.83672947  0.50565011  0.83637291  1
  Fe  Fe51  1  0.83771853  0.83565630  0.50389880  1
  Fe  Fe52  1  0.66889990  0.66947773  0.66873080  1
  Fe  Fe53  1  0.83733582  0.83561738  0.83574624  1
" 