8193,Ni9Fe84Cr6_11,-226.647170374928, 149.303658833417,Ni9Fe84Cr6,"# generated using pymatgen
 data_Cr4(Fe9Ni)5
_symmetry_space_group_name_H-M   'P 1'
_cell_length_a   7.43081673
_cell_length_b   7.43081673
_cell_length_c   10.50876180
_cell_angle_alpha   90.00000000
_cell_angle_beta   90.00000000
_cell_angle_gamma   90.00000000
_symmetry_Int_Tables_number   1
_chemical_formula_structural   Cr4(Fe9Ni)5
_chemical_formula_sum   'Cr4 Fe45 Ni5'
_cell_volume   580.26269184
_cell_formula_units_Z   1
loop_
 _symmetry_equiv_pos_site_id
 _symmetry_equiv_pos_as_xyz
  1  'x, y, z'
loop_
 _atom_site_type_symbol
 _atom_site_label
 _atom_site_symmetry_multiplicity
 _atom_site_fract_x
 _atom_site_fract_y
 _atom_site_fract_z
 _atom_site_occupancy
  Ni  Ni0  1  0.00323344  1.00101813  1.00190283  1
  Fe  Fe1  1  0.17076799  0.16758337  0.16999201  1
  Fe  Fe2  1  0.00365546  1.00098654  0.33602314  1
  Cr  Cr3  1  0.00247021  0.33575911  0.00245620  1
  Fe  Fe4  1  0.17054157  0.50360235  0.16933703  1
  Fe  Fe5  1  0.00355844  0.33684432  0.33680032  1
  Fe  Fe6  1  0.00306727  0.67218408  0.00342922  1
  Fe  Fe7  1  0.16921379  0.83618577  0.16834697  1
  Fe  Fe8  1  0.00264177  0.66916679  0.33617648  1
  Fe  Fe9  1  0.33533758  1.00223933  1.00230280  1
  Fe  Fe10  1  0.50047732  0.16884157  0.16878438  1
  Fe  Fe11  1  0.33646025  1.00197268  0.33666358  1
  Fe  Fe12  1  0.33771475  0.33524413  0.00246575  1
  Fe  Fe13  1  0.50268500  0.50263079  0.16821291  1
  Fe  Fe14  1  0.33605637  0.33584587  0.33604464  1
  Ni  Ni15  1  0.33853363  0.67037215  0.00320479  1
  Fe  Fe16  1  0.50268126  0.83585997  0.17035625  1
  Fe  Fe17  1  0.33632987  0.66950131  0.33518816  1
  Fe  Fe18  1  0.66713650  0.99986275  1.00227867  1
  Cr  Cr19  1  0.83404924  0.16759454  0.17057475  1
  Fe  Fe20  1  0.66730192  1.00091839  0.33758694  1
  Fe  Fe21  1  0.66561089  0.33722390  1.00184561  1
  Fe  Fe22  1  0.83483845  0.50452048  0.17058997  1
  Fe  Fe23  1  0.66748598  0.33685930  0.33703098  1
  Fe  Fe24  1  0.66948198  0.66912879  1.00210001  1
  Fe  Fe25  1  0.83611709  0.83431659  0.16898133  1
  Fe  Fe26  1  0.66844739  0.66954926  0.33655927  1
  Fe  Fe27  1  0.17006864  0.16809035  0.50232892  1
  Fe  Fe28  1  0.00371105  1.00089722  0.66883035  1
  Fe  Fe29  1  0.17279224  0.16785404  0.83479093  1
  Fe  Fe30  1  0.17058427  0.50370066  0.50293852  1
  Fe  Fe31  1  0.00261555  0.33595132  0.66701956  1
  Cr  Cr32  1  0.16997721  0.50525814  0.83496788  1
  Fe  Fe33  1  0.17016819  0.83548278  0.50243762  1
  Fe  Fe34  1  1.00133886  0.67039903  0.66770735  1
  Fe  Fe35  1  0.17090590  0.83826498  0.83648988  1
  Fe  Fe36  1  0.50237185  0.16821527  0.50311976  1
  Fe  Fe37  1  0.33703842  1.00235571  0.66857207  1
  Ni  Ni38  1  0.50305174  0.16892902  0.83654559  1
  Fe  Fe39  1  0.50193498  0.50343114  0.50322333  1
  Fe  Fe40  1  0.33754802  0.33466869  0.66898461  1
  Ni  Ni41  1  0.50183432  0.50263350  0.83577307  1
  Ni  Ni42  1  0.50177704  0.83508491  0.50215430  1
  Fe  Fe43  1  0.33756771  0.67069005  0.66874379  1
  Fe  Fe44  1  0.50210078  0.83532758  0.83498258  1
  Fe  Fe45  1  0.83491437  0.16801808  0.50225112  1
  Fe  Fe46  1  0.66695422  1.00104883  0.66775417  1
  Cr  Cr47  1  0.83480069  0.16709564  0.83448057  1
  Fe  Fe48  1  0.83470857  0.50337949  0.50231022  1
  Fe  Fe49  1  0.66706454  0.33660754  0.66884709  1
  Fe  Fe50  1  0.83188769  0.50363806  0.83432032  1
  Fe  Fe51  1  0.83482735  0.83590585  0.50235915  1
  Fe  Fe52  1  0.66811803  0.66941340  0.66856008  1
  Fe  Fe53  1  0.83508786  0.83349199  0.83591772  1
" 