2526,Ni9Fe26Cr64_18,-213.896515791413, 187.255046284163,Ni9Fe26Cr64,"# generated using pymatgen
 data_Cr35Fe14Ni5
_symmetry_space_group_name_H-M   'P 1'
_cell_length_a   7.55090405
_cell_length_b   7.55090405
_cell_length_c   10.67859091
_cell_angle_alpha   90.00000000
_cell_angle_beta   90.00000000
_cell_angle_gamma   90.00000000
_symmetry_Int_Tables_number   1
_chemical_formula_structural   Cr35Fe14Ni5
_chemical_formula_sum   'Cr35 Fe14 Ni5'
_cell_volume   608.85216169
_cell_formula_units_Z   1
loop_
 _symmetry_equiv_pos_site_id
 _symmetry_equiv_pos_as_xyz
  1  'x, y, z'
loop_
 _atom_site_type_symbol
 _atom_site_label
 _atom_site_symmetry_multiplicity
 _atom_site_fract_x
 _atom_site_fract_y
 _atom_site_fract_z
 _atom_site_occupancy
  Fe  Fe0  1  -0.00445863  -0.00290562  -0.00525092  1
  Fe  Fe1  1  0.16204318  0.16190848  0.16169190  1
  Cr  Cr2  1  0.99290196  -0.00490271  0.32486782  1
  Ni  Ni3  1  -0.00412153  0.32562654  -0.00399857  1
  Cr  Cr4  1  0.15858444  0.49510050  0.16215841  1
  Fe  Fe5  1  0.99285442  0.32745602  0.32833864  1
  Cr  Cr6  1  0.99166516  0.66515005  -0.00374942  1
  Cr  Cr7  1  0.15954559  0.82994946  0.16432509  1
  Fe  Fe8  1  0.99346363  0.66007453  0.32810142  1
  Cr  Cr9  1  0.32703410  -0.00301577  -0.00439120  1
  Ni  Ni10  1  0.49608387  0.15989393  0.16469995  1
  Ni  Ni11  1  0.32914081  -0.00196786  0.32528094  1
  Cr  Cr12  1  0.32679467  0.32643979  -0.00198912  1
  Ni  Ni13  1  0.49615211  0.49227390  0.16010343  1
  Cr  Cr14  1  0.32796878  0.32762545  0.32366270  1
  Cr  Cr15  1  0.32923972  0.66070865  -0.00444930  1
  Cr  Cr16  1  0.49321188  0.82950746  0.16404694  1
  Cr  Cr17  1  0.32765307  0.65904481  0.32809605  1
  Cr  Cr18  1  0.66303193  0.99163505  -0.00453575  1
  Cr  Cr19  1  0.82863407  0.16123068  0.16157038  1
  Ni  Ni20  1  0.66183948  -0.00309668  0.32674248  1
  Cr  Cr21  1  0.65916424  0.32650847  -0.00204509  1
  Cr  Cr22  1  0.82866087  0.49326300  0.15989709  1
  Fe  Fe23  1  0.66036027  0.32612212  0.32600569  1
  Fe  Fe24  1  0.66067774  0.66114751  -0.00327175  1
  Fe  Fe25  1  0.82550830  0.82859481  0.16218834  1
  Cr  Cr26  1  0.66233503  0.66027252  0.32427837  1
  Cr  Cr27  1  0.16131511  0.15917663  0.49331122  1
  Cr  Cr28  1  0.99374307  0.99392513  0.66551550  1
  Fe  Fe29  1  0.15972721  0.16249560  0.83018271  1
  Fe  Fe30  1  0.15999537  0.49296785  0.49148735  1
  Cr  Cr31  1  0.99399223  0.32741708  0.65689696  1
  Cr  Cr32  1  0.15854289  0.49452918  0.82793099  1
  Cr  Cr33  1  0.16207346  0.82777839  0.49149135  1
  Cr  Cr34  1  0.99380972  0.66125227  0.65642797  1
  Fe  Fe35  1  0.16003248  0.82798475  0.82981549  1
  Cr  Cr36  1  0.49594245  0.15923780  0.49200104  1
  Cr  Cr37  1  0.32648774  0.99382239  0.66371720  1
  Cr  Cr38  1  0.49569185  0.16089601  0.82575500  1
  Cr  Cr39  1  0.49557908  0.49376849  0.49525749  1
  Cr  Cr40  1  0.32634890  0.32798166  0.66222519  1
  Cr  Cr41  1  0.49568571  0.49489672  0.83012930  1
  Cr  Cr42  1  0.49347378  0.83021672  0.49329701  1
  Cr  Cr43  1  0.32684000  0.66117490  0.66152653  1
  Fe  Fe44  1  0.49506811  0.82824491  0.82945507  1
  Fe  Fe45  1  0.82812269  0.16090439  0.49050642  1
  Cr  Cr46  1  0.66369492  0.99372668  0.65981373  1
  Cr  Cr47  1  0.82943736  0.16250672  0.82815574  1
  Fe  Fe48  1  0.82862702  0.49356319  0.49027824  1
  Cr  Cr49  1  0.66340703  0.32743490  0.65650890  1
  Cr  Cr50  1  0.82851192  0.49293070  0.83048085  1
  Cr  Cr51  1  0.82756531  0.82868335  0.49124154  1
  Cr  Cr52  1  0.66245691  0.66210819  0.66468737  1
  Fe  Fe53  1  0.82801049  0.82688223  0.82968128  1
" 