7764,Ni9Fe87Cr2_16,-226.838234977402, 151.443205034939,Ni9Fe87Cr2,"# generated using pymatgen
 data_Cr2Fe47Ni5
_symmetry_space_group_name_H-M   'P 1'
_cell_length_a   7.41772952
_cell_length_b   7.41772952
_cell_length_c   10.49025369
_cell_angle_alpha   90.00000000
_cell_angle_beta   90.00000000
_cell_angle_gamma   90.00000000
_symmetry_Int_Tables_number   1
_chemical_formula_structural   Cr2Fe47Ni5
_chemical_formula_sum   'Cr2 Fe47 Ni5'
_cell_volume   577.20219896
_cell_formula_units_Z   1
loop_
 _symmetry_equiv_pos_site_id
 _symmetry_equiv_pos_as_xyz
  1  'x, y, z'
loop_
 _atom_site_type_symbol
 _atom_site_label
 _atom_site_symmetry_multiplicity
 _atom_site_fract_x
 _atom_site_fract_y
 _atom_site_fract_z
 _atom_site_occupancy
  Fe  Fe0  1  0.00339258  1.00286197  0.00379517  1
  Fe  Fe1  1  0.16955215  0.16898916  0.17013905  1
  Fe  Fe2  1  1.00258684  1.00151442  0.33528537  1
  Fe  Fe3  1  1.00332410  0.33658788  1.00311815  1
  Fe  Fe4  1  0.16916609  0.50455363  0.17020497  1
  Fe  Fe5  1  1.00252055  0.33789070  0.33592349  1
  Fe  Fe6  1  0.00332504  0.67052412  0.00430190  1
  Ni  Ni7  1  0.16929151  0.83718769  0.16983424  1
  Ni  Ni8  1  0.00395478  0.66986853  0.33664010  1
  Fe  Fe9  1  0.33553753  0.00394139  0.00437505  1
  Fe  Fe10  1  0.50329659  0.16888014  0.16992596  1
  Fe  Fe11  1  0.33656840  1.00183218  0.33553642  1
  Fe  Fe12  1  0.33675630  0.33665866  1.00322916  1
  Fe  Fe13  1  0.50332563  0.50430000  0.17039860  1
  Fe  Fe14  1  0.33727610  0.33821802  0.33617693  1
  Fe  Fe15  1  0.33567387  0.66937305  0.00424103  1
  Fe  Fe16  1  0.50332743  0.83679292  0.16963912  1
  Fe  Fe17  1  0.33612988  0.66992561  0.33675529  1
  Fe  Fe18  1  0.67104448  0.00394304  0.00380125  1
  Fe  Fe19  1  0.83712423  0.16898436  0.16995504  1
  Fe  Fe20  1  0.67081785  1.00266192  0.33693986  1
  Fe  Fe21  1  0.66989259  0.33672746  1.00329772  1
  Fe  Fe22  1  0.83748279  0.50458413  0.17017480  1
  Fe  Fe23  1  0.67017647  0.33745367  0.33693698  1
  Fe  Fe24  1  0.67097445  0.66930205  0.00430869  1
  Ni  Ni25  1  0.83714639  0.83660091  0.16924972  1
  Fe  Fe26  1  0.67049694  0.66985933  0.33665580  1
  Cr  Cr27  1  0.16923901  0.16969108  0.50288833  1
  Fe  Fe28  1  1.00202647  1.00255704  0.67088820  1
  Fe  Fe29  1  0.17020467  0.16991341  0.83644431  1
  Fe  Fe30  1  0.17024284  0.50510163  0.50314385  1
  Fe  Fe31  1  1.00201828  0.33681886  0.67092921  1
  Fe  Fe32  1  0.17013458  0.50344293  0.83662544  1
  Fe  Fe33  1  0.17034349  0.83423370  0.50259710  1
  Fe  Fe34  1  1.00284897  0.67059700  0.66955167  1
  Fe  Fe35  1  0.16846329  0.83661713  0.83713450  1
  Fe  Fe36  1  0.50516529  0.17021713  0.50359606  1
  Fe  Fe37  1  0.33708547  1.00332098  0.67006043  1
  Fe  Fe38  1  0.50354462  0.17126727  0.83644807  1
  Ni  Ni39  1  0.50399734  0.50385594  0.50421399  1
  Fe  Fe40  1  0.33824220  0.33720326  0.67056792  1
  Fe  Fe41  1  0.50325850  0.50172773  0.83622129  1
  Fe  Fe42  1  0.50335991  0.83668911  0.50398993  1
  Fe  Fe43  1  0.33664975  0.66944943  0.66898135  1
  Cr  Cr44  1  0.50390502  0.83622810  0.83708750  1
  Fe  Fe45  1  0.83423801  0.17031888  0.50370431  1
  Ni  Ni46  1  0.67048682  0.00478247  0.66898029  1
  Fe  Fe47  1  0.83622427  0.16959670  0.83631118  1
  Fe  Fe48  1  0.83669552  0.50329365  0.50307114  1
  Fe  Fe49  1  0.66971248  0.33638601  0.66974142  1
  Fe  Fe50  1  0.83657994  0.50347445  0.83672770  1
  Fe  Fe51  1  0.83627132  0.83636304  0.50291217  1
  Fe  Fe52  1  0.67047769  0.66944509  0.66901079  1
  Fe  Fe53  1  0.83793699  0.83690535  0.83684629  1
" 