2408,Ni9Fe62Cr27_13,-223.099147940281, 165.565611694379,Ni9Fe62Cr27,"# generated using pymatgen
 data_Cr16Fe33Ni5
_symmetry_space_group_name_H-M   'P 1'
_cell_length_a   7.48694450
_cell_length_b   7.48694450
_cell_length_c   10.58813845
_cell_angle_alpha   90.00000000
_cell_angle_beta   90.00000000
_cell_angle_gamma   90.00000000
_symmetry_Int_Tables_number   1
_chemical_formula_structural   Cr16Fe33Ni5
_chemical_formula_sum   'Cr16 Fe33 Ni5'
_cell_volume   593.51109132
_cell_formula_units_Z   1
loop_
 _symmetry_equiv_pos_site_id
 _symmetry_equiv_pos_as_xyz
  1  'x, y, z'
loop_
 _atom_site_type_symbol
 _atom_site_label
 _atom_site_symmetry_multiplicity
 _atom_site_fract_x
 _atom_site_fract_y
 _atom_site_fract_z
 _atom_site_occupancy
  Fe  Fe0  1  -0.00110595  -0.00052963  0.99694808  1
  Fe  Fe1  1  0.16482458  0.16492217  0.16408288  1
  Fe  Fe2  1  -0.00020749  0.00065893  0.33069203  1
  Cr  Cr3  1  0.00044768  0.33184058  0.99594336  1
  Fe  Fe4  1  0.16517586  0.49849099  0.16431415  1
  Ni  Ni5  1  0.00108495  0.33242640  0.33313782  1
  Cr  Cr6  1  0.00086999  0.66733781  0.99718654  1
  Fe  Fe7  1  0.16358608  0.83315729  0.16578737  1
  Fe  Fe8  1  0.99744842  0.66492448  0.33235097  1
  Fe  Fe9  1  0.33059194  -0.00039434  0.99753854  1
  Fe  Fe10  1  0.49729878  0.16571620  0.16251301  1
  Fe  Fe11  1  0.33037709  0.00090449  0.33146660  1
  Fe  Fe12  1  0.33301902  0.33108113  0.99597114  1
  Cr  Cr13  1  0.49993965  0.49857626  0.15945125  1
  Cr  Cr14  1  0.33051075  0.33160495  0.33203523  1
  Fe  Fe15  1  0.33318827  0.66480606  0.99619747  1
  Cr  Cr16  1  0.49638445  0.83056829  0.16464791  1
  Cr  Cr17  1  0.33134868  0.66439479  0.33289022  1
  Cr  Cr18  1  0.66570014  -0.00050072  0.99854174  1
  Fe  Fe19  1  0.83365862  0.16540969  0.16521627  1
  Cr  Cr20  1  0.66477339  0.99596168  0.33104062  1
  Ni  Ni21  1  0.66338595  0.33078308  0.99606036  1
  Cr  Cr22  1  0.83064098  0.49703253  0.16589570  1
  Cr  Cr23  1  0.66370382  0.32913899  0.33205174  1
  Ni  Ni24  1  0.66499202  0.66616408  0.99659818  1
  Fe  Fe25  1  0.83296908  0.83117244  0.16494396  1
  Fe  Fe26  1  0.66659303  0.66366826  0.33273887  1
  Fe  Fe27  1  0.16584994  0.16524001  0.49885931  1
  Cr  Cr28  1  0.99721183  0.99792039  0.67042987  1
  Ni  Ni29  1  0.16604173  0.16403175  0.83211334  1
  Fe  Fe30  1  0.16346031  0.49870849  0.49844983  1
  Cr  Cr31  1  0.00040659  0.33403802  0.66724421  1
  Ni  Ni32  1  0.16831853  0.49879420  0.83262810  1
  Cr  Cr33  1  0.16705910  0.83473863  0.49951884  1
  Cr  Cr34  1  -0.00090821  0.66434147  0.66767842  1
  Fe  Fe35  1  0.16886204  0.83228791  0.83264870  1
  Fe  Fe36  1  0.49747228  0.16227202  0.50029177  1
  Fe  Fe37  1  0.33309614  0.99855924  0.66746442  1
  Fe  Fe38  1  0.49666776  0.16633776  0.83187057  1
  Fe  Fe39  1  0.50104945  0.50032039  0.50020709  1
  Cr  Cr40  1  0.33225733  0.33284093  0.66337149  1
  Fe  Fe41  1  0.49834539  0.49837211  0.83365649  1
  Fe  Fe42  1  0.50049016  0.83188255  0.50048935  1
  Fe  Fe43  1  0.33332403  0.66559419  0.66640703  1
  Fe  Fe44  1  0.49653380  0.83116158  0.83227518  1
  Cr  Cr45  1  0.83357587  0.16699803  0.50057429  1
  Fe  Fe46  1  0.66292963  0.99820827  0.66680985  1
  Fe  Fe47  1  0.83106055  0.16711048  0.83194425  1
  Fe  Fe48  1  0.83209400  0.50064982  0.49744556  1
  Fe  Fe49  1  0.66552063  0.33322581  0.66715320  1
  Fe  Fe50  1  0.83019916  0.49824945  0.83340505  1
  Fe  Fe51  1  0.83107334  0.83090956  0.49917287  1
  Fe  Fe52  1  0.66435709  0.66497353  0.66721760  1
  Fe  Fe53  1  0.83069801  0.83116281  0.83267759  1
" 