1995,Ni9Fe57Cr33_7,-222.297089607065, 174.924459148606,Ni9Fe57Cr33,"# generated using pymatgen
 data_Cr19(Fe6Ni)5
_symmetry_space_group_name_H-M   'P 1'
_cell_length_a   7.48967255
_cell_length_b   7.48967255
_cell_length_c   10.59199650
_cell_angle_alpha   90.00000000
_cell_angle_beta   90.00000000
_cell_angle_gamma   90.00000000
_symmetry_Int_Tables_number   1
_chemical_formula_structural   Cr19(Fe6Ni)5
_chemical_formula_sum   'Cr19 Fe30 Ni5'
_cell_volume   594.16010913
_cell_formula_units_Z   1
loop_
 _symmetry_equiv_pos_site_id
 _symmetry_equiv_pos_as_xyz
  1  'x, y, z'
loop_
 _atom_site_type_symbol
 _atom_site_label
 _atom_site_symmetry_multiplicity
 _atom_site_fract_x
 _atom_site_fract_y
 _atom_site_fract_z
 _atom_site_occupancy
  Cr  Cr0  1  0.99589107  -0.00148796  0.99688698  1
  Fe  Fe1  1  0.16355317  0.16644753  0.16581844  1
  Fe  Fe2  1  0.99762000  0.00061662  0.33037837  1
  Ni  Ni3  1  0.99503088  0.33157253  0.00047439  1
  Fe  Fe4  1  0.16467976  0.49550860  0.16666475  1
  Fe  Fe5  1  -0.00037156  0.33048526  0.32932909  1
  Cr  Cr6  1  0.99658708  0.66403706  0.99692281  1
  Cr  Cr7  1  0.16730021  0.83088924  0.16464504  1
  Cr  Cr8  1  0.99541466  0.66571772  0.32939917  1
  Fe  Fe9  1  0.33139031  -0.00027342  -0.00104231  1
  Fe  Fe10  1  0.49947146  0.16455525  0.16526059  1
  Fe  Fe11  1  0.33192545  -0.00087612  0.33207028  1
  Cr  Cr12  1  0.33331546  0.33130245  0.00050006  1
  Fe  Fe13  1  0.49909419  0.49832286  0.16622361  1
  Fe  Fe14  1  0.33061982  0.33268323  0.33024959  1
  Cr  Cr15  1  0.33133324  0.66392179  0.99544327  1
  Cr  Cr16  1  0.49908702  0.83152796  0.16573459  1
  Ni  Ni17  1  0.33428877  0.66425014  0.33272880  1
  Fe  Fe18  1  0.66724429  0.00039806  -0.00042561  1
  Ni  Ni19  1  0.83185321  0.16737094  0.16412586  1
  Fe  Fe20  1  0.66643045  0.99641683  0.33082807  1
  Fe  Fe21  1  0.66936916  0.33214604  -0.00022941  1
  Fe  Fe22  1  0.83132792  0.49709891  0.16397409  1
  Cr  Cr23  1  0.66452845  0.33204499  0.33086008  1
  Fe  Fe24  1  0.66696382  0.66298868  -0.00134360  1
  Fe  Fe25  1  0.82990243  0.83389574  0.16561462  1
  Fe  Fe26  1  0.66351739  0.66573381  0.33255429  1
  Fe  Fe27  1  0.16467560  0.16457113  0.49644707  1
  Fe  Fe28  1  0.99661421  0.99735736  0.66662804  1
  Cr  Cr29  1  0.16170329  0.16546178  0.83140797  1
  Cr  Cr30  1  0.16587433  0.49858418  0.49646395  1
  Cr  Cr31  1  0.99637532  0.33134876  0.66530997  1
  Fe  Fe32  1  0.16480542  0.49824540  0.83161887  1
  Cr  Cr33  1  0.16688124  0.83153233  0.49921159  1
  Cr  Cr34  1  0.99729206  0.66726187  0.66886092  1
  Fe  Fe35  1  0.16436715  0.83183008  0.83069723  1
  Cr  Cr36  1  0.49970093  0.16406939  0.49876703  1
  Cr  Cr37  1  0.33169135  0.99753600  0.66545609  1
  Cr  Cr38  1  0.50410719  0.16516623  0.83443153  1
  Fe  Fe39  1  0.49946006  0.50231302  0.49830061  1
  Cr  Cr40  1  0.33479519  0.33397673  0.66395876  1
  Fe  Fe41  1  0.50123524  0.49823773  0.83075782  1
  Fe  Fe42  1  0.50002781  0.82870417  0.49779428  1
  Ni  Ni43  1  0.33463329  0.66497033  0.66625704  1
  Cr  Cr44  1  0.49794623  0.83029313  0.83233456  1
  Cr  Cr45  1  0.83333172  0.16507225  0.50092551  1
  Fe  Fe46  1  0.66792383  0.99664439  0.66592695  1
  Ni  Ni47  1  0.83070678  0.16708073  0.83146953  1
  Fe  Fe48  1  0.82924505  0.50020448  0.49853704  1
  Fe  Fe49  1  0.66545813  0.33461020  0.66608116  1
  Fe  Fe50  1  0.82948409  0.49581176  0.83312470  1
  Fe  Fe51  1  0.82922832  0.83166477  0.49847929  1
  Fe  Fe52  1  0.66342368  0.66412153  0.66442427  1
  Fe  Fe53  1  0.83008227  0.83447340  0.83112019  1
" 