2136,Ni9Fe26Cr64_9,-213.60093465088, 185.28782280639,Ni9Fe26Cr64,"# generated using pymatgen
 data_Cr35Fe14Ni5
_symmetry_space_group_name_H-M   'P 1'
_cell_length_a   7.54744593
_cell_length_b   7.54744593
_cell_length_c   10.67370040
_cell_angle_alpha   90.00000000
_cell_angle_beta   90.00000000
_cell_angle_gamma   90.00000000
_symmetry_Int_Tables_number   1
_chemical_formula_structural   Cr35Fe14Ni5
_chemical_formula_sum   'Cr35 Fe14 Ni5'
_cell_volume   608.01602990
_cell_formula_units_Z   1
loop_
 _symmetry_equiv_pos_site_id
 _symmetry_equiv_pos_as_xyz
  1  'x, y, z'
loop_
 _atom_site_type_symbol
 _atom_site_label
 _atom_site_symmetry_multiplicity
 _atom_site_fract_x
 _atom_site_fract_y
 _atom_site_fract_z
 _atom_site_occupancy
  Fe  Fe0  1  0.99348367  0.99406147  0.99423418  1
  Cr  Cr1  1  0.16290001  0.16302218  0.16052657  1
  Cr  Cr2  1  -0.00506816  -0.00532510  0.32740665  1
  Cr  Cr3  1  -0.00422285  0.32659673  0.99412252  1
  Fe  Fe4  1  0.16236199  0.49181299  0.16134639  1
  Fe  Fe5  1  -0.00250410  0.32831681  0.32902990  1
  Fe  Fe6  1  0.99269423  0.66208168  -0.00463074  1
  Cr  Cr7  1  0.15986802  0.82726156  0.15790264  1
  Cr  Cr8  1  -0.00202406  0.66134641  0.32936830  1
  Cr  Cr9  1  0.32858713  -0.00400108  -0.00370223  1
  Cr  Cr10  1  0.49269590  0.16336320  0.16400388  1
  Cr  Cr11  1  0.32638090  0.99420258  0.32963896  1
  Ni  Ni12  1  0.32738399  0.33074705  0.99462403  1
  Cr  Cr13  1  0.49522661  0.49280936  0.16034144  1
  Ni  Ni14  1  0.32556783  0.32947769  0.32789299  1
  Cr  Cr15  1  0.32877305  0.65770007  -0.00443332  1
  Fe  Fe16  1  0.49590014  0.82744266  0.16061098  1
  Cr  Cr17  1  0.32572482  0.65966595  0.32945409  1
  Cr  Cr18  1  0.66579007  0.99323947  -0.00435318  1
  Cr  Cr19  1  0.82874273  0.16362352  0.16336753  1
  Cr  Cr20  1  0.66243635  -0.00497592  0.32592072  1
  Cr  Cr21  1  0.65944585  0.32751164  0.99108580  1
  Cr  Cr22  1  0.82911847  0.49574099  0.16418002  1
  Ni  Ni23  1  0.65991290  0.32767186  0.32788944  1
  Fe  Fe24  1  0.66186327  0.66146214  0.99451965  1
  Fe  Fe25  1  0.82804441  0.82718497  0.15958198  1
  Cr  Cr26  1  0.66052959  0.66246825  0.32558014  1
  Fe  Fe27  1  0.16125547  0.16270178  0.49464389  1
  Cr  Cr28  1  0.99387753  -0.00331155  0.66218482  1
  Cr  Cr29  1  0.16150891  0.16037810  0.82930057  1
  Fe  Fe30  1  0.16113173  0.49191744  0.49430772  1
  Ni  Ni31  1  -0.00431212  0.32511842  0.65943984  1
  Cr  Cr32  1  0.15962394  0.49452428  0.83012096  1
  Ni  Ni33  1  0.16220510  0.82988496  0.49664479  1
  Cr  Cr34  1  -0.00312152  0.66053036  0.65897726  1
  Cr  Cr35  1  0.16009836  0.82908420  0.82844698  1
  Cr  Cr36  1  0.49356568  0.16134410  0.49353197  1
  Fe  Fe37  1  0.32581742  -0.00446407  0.65959331  1
  Cr  Cr38  1  0.49313441  0.16086860  0.82703945  1
  Cr  Cr39  1  0.49687623  0.49251295  0.49382904  1
  Cr  Cr40  1  0.32587720  0.32927102  0.66306930  1
  Fe  Fe41  1  0.49279802  0.49476751  0.82968012  1
  Cr  Cr42  1  0.49213296  0.83051344  0.49625725  1
  Cr  Cr43  1  0.32666815  0.66092454  0.65857398  1
  Cr  Cr44  1  0.49430867  0.82838268  0.82537793  1
  Cr  Cr45  1  0.82818788  0.16531629  0.49405404  1
  Fe  Fe46  1  0.66250905  -0.00420609  0.66218237  1
  Fe  Fe47  1  0.82983344  0.15981801  0.82697341  1
  Cr  Cr48  1  0.82972307  0.49180633  0.49242872  1
  Cr  Cr49  1  0.66302121  0.32640113  0.66506521  1
  Cr  Cr50  1  0.82834752  0.49601013  0.82700026  1
  Cr  Cr51  1  0.82871828  0.82695423  0.49556750  1
  Cr  Cr52  1  0.66032073  0.66166327  0.66358300  1
  Fe  Fe53  1  0.82866546  0.82916436  0.82900248  1
" 