8103,Ni9Fe84Cr6_12,-226.484372869165, 152.528047560529,Ni9Fe84Cr6,"# generated using pymatgen
 data_Cr4(Fe9Ni)5
_symmetry_space_group_name_H-M   'P 1'
_cell_length_a   7.42624608
_cell_length_b   7.42624608
_cell_length_c   10.50229793
_cell_angle_alpha   90.00000000
_cell_angle_beta   90.00000000
_cell_angle_gamma   90.00000000
_symmetry_Int_Tables_number   1
_chemical_formula_structural   Cr4(Fe9Ni)5
_chemical_formula_sum   'Cr4 Fe45 Ni5'
_cell_volume   579.19260342
_cell_formula_units_Z   1
loop_
 _symmetry_equiv_pos_site_id
 _symmetry_equiv_pos_as_xyz
  1  'x, y, z'
loop_
 _atom_site_type_symbol
 _atom_site_label
 _atom_site_symmetry_multiplicity
 _atom_site_fract_x
 _atom_site_fract_y
 _atom_site_fract_z
 _atom_site_occupancy
  Fe  Fe0  1  1.00244997  1.00025126  1.00205887  1
  Fe  Fe1  1  0.17085079  0.16799515  0.16951571  1
  Fe  Fe2  1  0.99991397  1.00229741  0.33403220  1
  Cr  Cr3  1  0.00413964  0.33536226  1.00263969  1
  Fe  Fe4  1  0.17061558  0.50389561  0.17010651  1
  Fe  Fe5  1  0.99970355  0.33554541  0.33317831  1
  Fe  Fe6  1  1.00220608  0.67049784  1.00241388  1
  Fe  Fe7  1  0.16951606  0.83612260  0.16977431  1
  Fe  Fe8  1  0.99994000  0.67038350  0.33412715  1
  Fe  Fe9  1  0.33612351  1.00261542  1.00220999  1
  Fe  Fe10  1  0.50392396  0.16872535  0.16952146  1
  Fe  Fe11  1  0.33891624  1.00224538  0.33412066  1
  Fe  Fe12  1  0.33846307  0.33693744  1.00173517  1
  Fe  Fe13  1  0.50370541  0.50325694  0.16861989  1
  Fe  Fe14  1  0.33937747  0.33554952  0.33383300  1
  Fe  Fe15  1  0.33560778  0.66870725  1.00254384  1
  Fe  Fe16  1  0.50405828  0.83637630  0.16889830  1
  Fe  Fe17  1  0.33909566  0.67043493  0.33421778  1
  Fe  Fe18  1  0.66985158  0.00281203  0.00356487  1
  Fe  Fe19  1  0.83394045  0.16790806  0.17030846  1
  Ni  Ni20  1  0.66890774  1.00178931  0.33712440  1
  Fe  Fe21  1  0.66827731  0.33711744  0.00286637  1
  Fe  Fe22  1  0.83396061  0.50420673  0.16916956  1
  Fe  Fe23  1  0.66924868  0.33514459  0.33598619  1
  Ni  Ni24  1  0.66844583  0.67039485  0.00305140  1
  Fe  Fe25  1  0.83435769  0.83624571  0.16907927  1
  Fe  Fe26  1  0.66918138  0.67007867  0.33604890  1
  Cr  Cr27  1  0.16933215  0.16947489  0.50272099  1
  Fe  Fe28  1  0.99990460  1.00237136  0.67199395  1
  Ni  Ni29  1  0.17017196  0.16914702  0.83556861  1
  Cr  Cr30  1  0.16933248  0.50258992  0.50278986  1
  Fe  Fe31  1  1.00048665  0.33682556  0.67259740  1
  Ni  Ni32  1  0.17012195  0.50336454  0.83575844  1
  Cr  Cr33  1  0.16941879  0.83613508  0.50389736  1
  Fe  Fe34  1  1.00004004  0.66909706  0.67178499  1
  Fe  Fe35  1  0.16955608  0.83616568  0.83567758  1
  Fe  Fe36  1  0.50395663  0.16928502  0.50243979  1
  Fe  Fe37  1  0.33924036  1.00231089  0.67187380  1
  Fe  Fe38  1  0.50227587  0.16997894  0.83661146  1
  Fe  Fe39  1  0.50399286  0.50283150  0.50275584  1
  Fe  Fe40  1  0.33869133  0.33680793  0.67196475  1
  Fe  Fe41  1  0.50345122  0.50352728  0.83639892  1
  Fe  Fe42  1  0.50391747  0.83605060  0.50268853  1
  Fe  Fe43  1  0.33883337  0.66919288  0.67164785  1
  Fe  Fe44  1  0.50307447  0.83507632  0.83661945  1
  Fe  Fe45  1  0.83487069  0.16927694  0.50238374  1
  Fe  Fe46  1  0.66922961  1.00197642  0.66857638  1
  Fe  Fe47  1  0.83577045  0.16901214  0.83558491  1
  Fe  Fe48  1  0.83483110  0.50284440  0.50283935  1
  Fe  Fe49  1  0.66930808  0.33690125  0.66937243  1
  Fe  Fe50  1  0.83470383  0.50431551  0.83588775  1
  Fe  Fe51  1  0.83480242  0.83604430  0.50270118  1
  Ni  Ni52  1  0.66886137  0.66998196  0.66805677  1
  Fe  Fe53  1  0.83539017  0.83486193  0.83640605  1
" 