7365,Ni9Fe84Cr6_5,-226.489855550289, 151.934028456539,Ni9Fe84Cr6,"# generated using pymatgen
 data_Cr4(Fe9Ni)5
_symmetry_space_group_name_H-M   'P 1'
_cell_length_a   7.42982316
_cell_length_b   7.42982316
_cell_length_c   10.50735668
_cell_angle_alpha   90.00000000
_cell_angle_beta   90.00000000
_cell_angle_gamma   90.00000000
_symmetry_Int_Tables_number   1
_chemical_formula_structural   Cr4(Fe9Ni)5
_chemical_formula_sum   'Cr4 Fe45 Ni5'
_cell_volume   580.02996300
_cell_formula_units_Z   1
loop_
 _symmetry_equiv_pos_site_id
 _symmetry_equiv_pos_as_xyz
  1  'x, y, z'
loop_
 _atom_site_type_symbol
 _atom_site_label
 _atom_site_symmetry_multiplicity
 _atom_site_fract_x
 _atom_site_fract_y
 _atom_site_fract_z
 _atom_site_occupancy
  Fe  Fe0  1  1.00234572  1.00019983  0.00341565  1
  Fe  Fe1  1  0.16859544  0.16882658  0.16872580  1
  Fe  Fe2  1  0.00271388  1.00145493  0.33564757  1
  Fe  Fe3  1  1.00239806  0.33718675  0.00315080  1
  Fe  Fe4  1  0.16654899  0.50284386  0.16789469  1
  Fe  Fe5  1  1.00227849  0.33553303  0.33575326  1
  Fe  Fe6  1  0.00269812  0.67004031  0.00266222  1
  Fe  Fe7  1  0.16856722  0.83593594  0.16774367  1
  Fe  Fe8  1  1.00021839  0.67066292  0.33611483  1
  Fe  Fe9  1  0.33612445  1.00060699  0.00293711  1
  Fe  Fe10  1  0.50357869  0.16623146  0.16941482  1
  Fe  Fe11  1  0.33592878  0.00375937  0.33636638  1
  Fe  Fe12  1  0.33548471  0.33613392  0.00253397  1
  Cr  Cr13  1  0.50381237  0.50195651  0.16944090  1
  Fe  Fe14  1  0.33547699  0.33257330  0.33653617  1
  Ni  Ni15  1  0.33424352  0.66934469  1.00148510  1
  Fe  Fe16  1  0.50397120  0.83743808  0.16821071  1
  Cr  Cr17  1  0.33320869  0.66946413  0.33599134  1
  Fe  Fe18  1  0.66914054  1.00139950  0.00331554  1
  Fe  Fe19  1  0.83526477  0.16861004  0.16927200  1
  Ni  Ni20  1  0.67008405  0.00343819  0.33525737  1
  Fe  Fe21  1  0.66959268  0.33562316  1.00101991  1
  Fe  Fe22  1  0.83781438  0.50332103  0.16921561  1
  Fe  Fe23  1  0.66995215  0.33478398  0.33721830  1
  Fe  Fe24  1  0.66977421  0.67050190  1.00191636  1
  Ni  Ni25  1  0.83665947  0.83582807  0.16961046  1
  Fe  Fe26  1  0.67156006  0.67116736  0.33637062  1
  Fe  Fe27  1  0.16883721  0.16890492  0.50302935  1
  Fe  Fe28  1  0.00340929  1.00055428  0.66824131  1
  Cr  Cr29  1  0.16910502  0.16739924  0.83454640  1
  Fe  Fe30  1  0.16783491  0.50253188  0.50355170  1
  Fe  Fe31  1  1.00077437  0.33644643  0.66823421  1
  Fe  Fe32  1  0.16906303  0.50438471  0.83582595  1
  Ni  Ni33  1  0.16794127  0.83733985  0.50320360  1
  Fe  Fe34  1  0.00258998  0.67053931  0.66907085  1
  Ni  Ni35  1  0.16838836  0.83575836  0.83568880  1
  Fe  Fe36  1  0.50160324  0.16849894  0.50135930  1
  Fe  Fe37  1  0.33499925  1.00056358  0.66798328  1
  Fe  Fe38  1  0.50254723  0.16937934  0.83703454  1
  Fe  Fe39  1  0.50264426  0.50264851  0.50299004  1
  Fe  Fe40  1  0.33753018  0.33644990  0.66803667  1
  Fe  Fe41  1  0.50103842  0.50328570  0.83650851  1
  Fe  Fe42  1  0.50257223  0.83659269  0.50211370  1
  Fe  Fe43  1  0.33533777  0.67050268  0.66945570  1
  Fe  Fe44  1  0.50024565  0.83509041  0.83701936  1
  Fe  Fe45  1  0.83727593  0.16879564  0.50130862  1
  Cr  Cr46  1  0.67033178  0.00265912  0.67039657  1
  Fe  Fe47  1  0.83621529  0.16951746  0.83724967  1
  Fe  Fe48  1  0.83680445  0.50333609  0.50262411  1
  Fe  Fe49  1  0.66919059  0.33782116  0.66933150  1
  Fe  Fe50  1  0.83719684  0.50292965  0.83567153  1
  Fe  Fe51  1  0.83654184  0.83574744  0.50051428  1
  Fe  Fe52  1  0.66935905  0.66745425  0.66930268  1
  Fe  Fe53  1  0.83786035  0.83527637  0.83776039  1
" 