2759,Ni9Fe57Cr33_18,-222.458715700216, 173.284945061667,Ni9Fe57Cr33,"# generated using pymatgen
 data_Cr19(Fe6Ni)5
_symmetry_space_group_name_H-M   'P 1'
_cell_length_a   7.49406399
_cell_length_b   7.49406399
_cell_length_c   10.59820693
_cell_angle_alpha   90.00000000
_cell_angle_beta   90.00000000
_cell_angle_gamma   90.00000000
_symmetry_Int_Tables_number   1
_chemical_formula_structural   Cr19(Fe6Ni)5
_chemical_formula_sum   'Cr19 Fe30 Ni5'
_cell_volume   595.20584786
_cell_formula_units_Z   1
loop_
 _symmetry_equiv_pos_site_id
 _symmetry_equiv_pos_as_xyz
  1  'x, y, z'
loop_
 _atom_site_type_symbol
 _atom_site_label
 _atom_site_symmetry_multiplicity
 _atom_site_fract_x
 _atom_site_fract_y
 _atom_site_fract_z
 _atom_site_occupancy
  Ni  Ni0  1  0.99590663  -0.00140514  -0.00097305  1
  Cr  Cr1  1  0.16730401  0.16309701  0.16367351  1
  Ni  Ni2  1  0.99736575  0.99749048  0.33156156  1
  Fe  Fe3  1  0.99604475  0.32905464  -0.00028522  1
  Cr  Cr4  1  0.16213396  0.50051729  0.16676222  1
  Cr  Cr5  1  0.99577775  0.32687479  0.33259768  1
  Fe  Fe6  1  0.99586480  0.66622120  0.00097570  1
  Fe  Fe7  1  0.16282105  0.83346181  0.16504657  1
  Fe  Fe8  1  0.99498696  0.66832178  0.33010403  1
  Fe  Fe9  1  0.33233876  -0.00170384  -0.00041416  1
  Fe  Fe10  1  0.50113554  0.16458455  0.16507980  1
  Fe  Fe11  1  0.33121471  0.99642361  0.32963924  1
  Cr  Cr12  1  0.33234922  0.33347770  0.99655640  1
  Fe  Fe13  1  0.49964958  0.49668428  0.16480052  1
  Fe  Fe14  1  0.33155373  0.33011763  0.32917135  1
  Cr  Cr15  1  0.33408964  0.66637104  -0.00154908  1
  Fe  Fe16  1  0.49782375  0.83412831  0.16521106  1
  Fe  Fe17  1  0.33083659  0.66780506  0.32936395  1
  Fe  Fe18  1  0.66575169  -0.00152320  0.00059333  1
  Fe  Fe19  1  0.83161123  0.16285696  0.16401091  1
  Fe  Fe20  1  0.66893170  0.99796735  0.33023809  1
  Ni  Ni21  1  0.66703481  0.33155824  0.00127550  1
  Fe  Fe22  1  0.82997387  0.49763098  0.16407858  1
  Fe  Fe23  1  0.66641709  0.32928229  0.32805690  1
  Fe  Fe24  1  0.66582721  0.66496257  0.00061591  1
  Fe  Fe25  1  0.83373474  0.83362456  0.16513350  1
  Cr  Cr26  1  0.66369751  0.66599027  0.33118727  1
  Fe  Fe27  1  0.16325982  0.16258104  0.49774560  1
  Fe  Fe28  1  0.99731151  0.00028208  0.66401243  1
  Fe  Fe29  1  0.16119567  0.16374099  0.83299257  1
  Cr  Cr30  1  0.16418977  0.49883124  0.49619471  1
  Fe  Fe31  1  0.99781050  0.32816572  0.66433607  1
  Cr  Cr32  1  0.16110785  0.49886457  0.83147004  1
  Cr  Cr33  1  0.16324128  0.83183075  0.49558954  1
  Fe  Fe34  1  0.99764585  0.66722381  0.66427314  1
  Cr  Cr35  1  0.16324708  0.83406727  0.83433493  1
  Cr  Cr36  1  0.49810202  0.16221022  0.49301232  1
  Fe  Fe37  1  0.33170217  -0.00117877  0.66453442  1
  Cr  Cr38  1  0.49977340  0.16181645  0.83439447  1
  Cr  Cr39  1  0.49795461  0.49518276  0.49559236  1
  Cr  Cr40  1  0.33008057  0.33086051  0.66614947  1
  Ni  Ni41  1  0.50186326  0.49713194  0.83330975  1
  Fe  Fe42  1  0.50008718  0.83176915  0.49781017  1
  Cr  Cr43  1  0.33557168  0.66627358  0.66600917  1
  Fe  Fe44  1  0.50038836  0.83028960  0.83219276  1
  Fe  Fe45  1  0.83237470  0.16148538  0.49833235  1
  Fe  Fe46  1  0.66445105  0.99682874  0.66350511  1
  Fe  Fe47  1  0.83260439  0.16529968  0.83391604  1
  Cr  Cr48  1  0.83229805  0.50139367  0.49893436  1
  Cr  Cr49  1  0.66622266  0.33031432  0.66435011  1
  Cr  Cr50  1  0.83094379  0.49910845  0.83314726  1
  Ni  Ni51  1  0.83124710  0.83485067  0.49826407  1
  Fe  Fe52  1  0.66530999  0.66718119  0.66422381  1
  Cr  Cr53  1  0.83050262  0.83238672  0.83152488  1
" 