5989,Ni9Fe57Cr33_1,-221.781498938825, 168.891150145094,Ni9Fe57Cr33,"# generated using pymatgen
 data_Cr19(Fe6Ni)5
_symmetry_space_group_name_H-M   'P 1'
_cell_length_a   7.48649000
_cell_length_b   7.48649000
_cell_length_c   10.58749569
_cell_angle_alpha   90.00000000
_cell_angle_beta   90.00000000
_cell_angle_gamma   90.00000000
_symmetry_Int_Tables_number   1
_chemical_formula_structural   Cr19(Fe6Ni)5
_chemical_formula_sum   'Cr19 Fe30 Ni5'
_cell_volume   593.40300825
_cell_formula_units_Z   1
loop_
 _symmetry_equiv_pos_site_id
 _symmetry_equiv_pos_as_xyz
  1  'x, y, z'
loop_
 _atom_site_type_symbol
 _atom_site_label
 _atom_site_symmetry_multiplicity
 _atom_site_fract_x
 _atom_site_fract_y
 _atom_site_fract_z
 _atom_site_occupancy
  Fe  Fe0  1  -0.00033708  0.99655147  0.99840055  1
  Cr  Cr1  1  0.16378069  0.16616365  0.16523806  1
  Fe  Fe2  1  0.99544161  0.99723932  0.33383650  1
  Fe  Fe3  1  -0.00044973  0.33695269  0.00038851  1
  Fe  Fe4  1  0.16668376  0.50145686  0.16277738  1
  Cr  Cr5  1  -0.00058522  0.33522130  0.33059946  1
  Ni  Ni6  1  0.99822894  0.66759700  -0.00059373  1
  Fe  Fe7  1  0.16418921  0.82997795  0.16508191  1
  Fe  Fe8  1  0.99863569  0.66674731  0.32934137  1
  Fe  Fe9  1  0.33023528  0.99765038  0.99810097  1
  Cr  Cr10  1  0.49901808  0.16474700  0.16412500  1
  Cr  Cr11  1  0.33034094  0.99759899  0.33402749  1
  Ni  Ni12  1  0.33271495  0.33255587  -0.00103531  1
  Ni  Ni13  1  0.49570048  0.50171560  0.16416405  1
  Fe  Fe14  1  0.33321690  0.33547257  0.33038481  1
  Fe  Fe15  1  0.33066648  0.66302385  -0.00080918  1
  Cr  Cr16  1  0.49903862  0.83030343  0.16682450  1
  Fe  Fe17  1  0.33129871  0.66120513  0.33235796  1
  Fe  Fe18  1  0.66682489  0.99611607  0.99853232  1
  Cr  Cr19  1  0.83286527  0.16211163  0.16514806  1
  Ni  Ni20  1  0.66724457  0.99678215  0.33317736  1
  Cr  Cr21  1  0.66505954  0.33447478  0.00026512  1
  Fe  Fe22  1  0.83276310  0.50199285  0.16321983  1
  Cr  Cr23  1  0.66621466  0.33317842  0.32928948  1
  Fe  Fe24  1  0.66668973  0.66430646  -0.00004414  1
  Fe  Fe25  1  0.83312178  0.83053946  0.16465521  1
  Cr  Cr26  1  0.66665716  0.66368196  0.33226475  1
  Fe  Fe27  1  0.16425586  0.16765477  0.49867984  1
  Cr  Cr28  1  -0.00103613  0.99763986  0.66411947  1
  Cr  Cr29  1  0.16387764  0.16816481  0.83246451  1
  Fe  Fe30  1  0.16482391  0.49542124  0.49941240  1
  Fe  Fe31  1  0.99716651  0.33316844  0.66260541  1
  Cr  Cr32  1  0.16346893  0.49965051  0.83158106  1
  Cr  Cr33  1  0.16449721  0.82737485  0.49786768  1
  Fe  Fe34  1  0.99550895  0.66462273  0.66616916  1
  Fe  Fe35  1  0.16288781  0.83131816  0.83453301  1
  Cr  Cr36  1  0.50045930  0.16631921  0.49775615  1
  Cr  Cr37  1  0.33096223  -0.00095115  0.66774160  1
  Fe  Fe38  1  0.49810869  0.16741297  0.83370542  1
  Fe  Fe39  1  0.49865603  0.49876094  0.49839393  1
  Fe  Fe40  1  0.33342974  0.33260409  0.66556651  1
  Fe  Fe41  1  0.49907850  0.49630754  0.83285941  1
  Fe  Fe42  1  0.50140378  0.83088200  0.49815216  1
  Cr  Cr43  1  0.33245500  0.66521944  0.66522113  1
  Cr  Cr44  1  0.50017615  0.82897443  0.83399825  1
  Ni  Ni45  1  0.83268553  0.16663747  0.49728043  1
  Cr  Cr46  1  0.66603651  0.99868028  0.66512337  1
  Cr  Cr47  1  0.83227694  0.16771549  0.83350960  1
  Fe  Fe48  1  0.83311375  0.49882895  0.50041647  1
  Fe  Fe49  1  0.66621534  0.33451163  0.66499697  1
  Fe  Fe50  1  0.83127512  0.50224463  0.83214790  1
  Fe  Fe51  1  0.83119247  0.83198260  0.49766980  1
  Fe  Fe52  1  0.66742836  0.66374607  0.66454919  1
  Fe  Fe53  1  0.83421799  0.82962498  0.83364199  1
" 