5384,Ni9Fe57Cr33_9,-221.938287671065, 168.794624360432,Ni9Fe57Cr33,"# generated using pymatgen
 data_Cr19(Fe6Ni)5
_symmetry_space_group_name_H-M   'P 1'
_cell_length_a   7.49741838
_cell_length_b   7.49741838
_cell_length_c   10.60295075
_cell_angle_alpha   90.00000000
_cell_angle_beta   90.00000000
_cell_angle_gamma   90.00000000
_symmetry_Int_Tables_number   1
_chemical_formula_structural   Cr19(Fe6Ni)5
_chemical_formula_sum   'Cr19 Fe30 Ni5'
_cell_volume   596.00545832
_cell_formula_units_Z   1
loop_
 _symmetry_equiv_pos_site_id
 _symmetry_equiv_pos_as_xyz
  1  'x, y, z'
loop_
 _atom_site_type_symbol
 _atom_site_label
 _atom_site_symmetry_multiplicity
 _atom_site_fract_x
 _atom_site_fract_y
 _atom_site_fract_z
 _atom_site_occupancy
  Fe  Fe0  1  0.99758944  0.99751098  -0.00110390  1
  Fe  Fe1  1  0.16440821  0.16327091  0.16469599  1
  Cr  Cr2  1  -0.00006269  0.99669451  0.32940295  1
  Fe  Fe3  1  0.99734468  0.33115383  0.99739182  1
  Cr  Cr4  1  0.16387405  0.49733069  0.16363085  1
  Ni  Ni5  1  0.99767896  0.33297333  0.33059009  1
  Fe  Fe6  1  0.99527650  0.66525994  -0.00111479  1
  Ni  Ni7  1  0.16428325  0.83280451  0.16581745  1
  Cr  Cr8  1  0.99772882  0.66448529  0.33174090  1
  Cr  Cr9  1  0.33077887  -0.00103534  0.00072333  1
  Fe  Fe10  1  0.49660186  0.16355250  0.16362462  1
  Fe  Fe11  1  0.33132237  0.99613680  0.33063563  1
  Fe  Fe12  1  0.33236305  0.33006391  0.99696801  1
  Cr  Cr13  1  0.49961136  0.49900757  0.16422310  1
  Cr  Cr14  1  0.33120716  0.33008627  0.33076655  1
  Cr  Cr15  1  0.33033698  0.66440807  0.99786334  1
  Fe  Fe16  1  0.49792563  0.83131413  0.16631858  1
  Fe  Fe17  1  0.33253882  0.66772328  0.33189716  1
  Cr  Cr18  1  0.66524848  -0.00193084  0.99714518  1
  Cr  Cr19  1  0.83272887  0.16561570  0.16374759  1
  Cr  Cr20  1  0.66209383  0.99644796  0.33140066  1
  Ni  Ni21  1  0.66555819  0.33233425  0.99653781  1
  Fe  Fe22  1  0.83183915  0.49959525  0.16357858  1
  Cr  Cr23  1  0.66580674  0.33231416  0.33329083  1
  Fe  Fe24  1  0.66648933  0.66384080  0.99763467  1
  Ni  Ni25  1  0.83175857  0.83017367  0.16259047  1
  Fe  Fe26  1  0.66465331  0.66542577  0.33210032  1
  Cr  Cr27  1  0.16419123  0.16403788  0.49904502  1
  Fe  Fe28  1  -0.00165351  0.99724202  0.66509937  1
  Fe  Fe29  1  0.16411258  0.16624971  0.83052154  1
  Cr  Cr30  1  0.16427137  0.49816776  0.49908903  1
  Fe  Fe31  1  -0.00160371  0.33202420  0.66565744  1
  Fe  Fe32  1  0.16359463  0.49582726  0.83121275  1
  Fe  Fe33  1  0.16590637  0.83199536  0.49820920  1
  Fe  Fe34  1  0.99658389  0.66465940  0.66453743  1
  Cr  Cr35  1  0.16295855  0.83163559  0.82905772  1
  Fe  Fe36  1  0.49619843  0.16341438  0.49856434  1
  Fe  Fe37  1  0.33203942  -0.00135212  0.66437867  1
  Fe  Fe38  1  0.49713935  0.16599333  0.83174147  1
  Fe  Fe39  1  0.49852307  0.49905616  0.49731765  1
  Fe  Fe40  1  0.33160596  0.33023104  0.66561401  1
  Fe  Fe41  1  0.49820031  0.49663261  0.83297823  1
  Ni  Ni42  1  0.49714196  0.83040143  0.49612997  1
  Cr  Cr43  1  0.33004958  0.66441303  0.66398427  1
  Fe  Fe44  1  0.49900601  0.83129970  0.83065021  1
  Cr  Cr45  1  0.83238685  0.16558254  0.49863514  1
  Cr  Cr46  1  0.66423569  -0.00179343  0.66537605  1
  Fe  Fe47  1  0.83267505  0.16543658  0.83219136  1
  Fe  Fe48  1  0.83129837  0.49903336  0.49760308  1
  Cr  Cr49  1  0.66374029  0.33081811  0.66355708  1
  Fe  Fe50  1  0.83212835  0.49770216  0.83274236  1
  Fe  Fe51  1  0.83128128  0.82967618  0.49807135  1
  Cr  Cr52  1  0.66576718  0.66489947  0.66421699  1
  Fe  Fe53  1  0.83186523  0.83078598  0.83234807  1
" 