7660,Ni9Fe57Cr33_15,-221.854794705013, 170.556490079791,Ni9Fe57Cr33,"# generated using pymatgen
 data_Cr19(Fe6Ni)5
_symmetry_space_group_name_H-M   'P 1'
_cell_length_a   7.49106919
_cell_length_b   7.49106919
_cell_length_c   10.59397164
_cell_angle_alpha   90.00000000
_cell_angle_beta   90.00000000
_cell_angle_gamma   90.00000000
_symmetry_Int_Tables_number   1
_chemical_formula_structural   Cr19(Fe6Ni)5
_chemical_formula_sum   'Cr19 Fe30 Ni5'
_cell_volume   594.49255859
_cell_formula_units_Z   1
loop_
 _symmetry_equiv_pos_site_id
 _symmetry_equiv_pos_as_xyz
  1  'x, y, z'
loop_
 _atom_site_type_symbol
 _atom_site_label
 _atom_site_symmetry_multiplicity
 _atom_site_fract_x
 _atom_site_fract_y
 _atom_site_fract_z
 _atom_site_occupancy
  Cr  Cr0  1  -0.00124576  0.99698731  0.99801123  1
  Cr  Cr1  1  0.16592219  0.16402557  0.16675588  1
  Fe  Fe2  1  0.99684762  0.99585800  0.33102635  1
  Fe  Fe3  1  0.00125130  0.33010078  0.99788313  1
  Cr  Cr4  1  0.16624140  0.49731401  0.16562650  1
  Cr  Cr5  1  0.99804494  0.33427513  0.33140666  1
  Cr  Cr6  1  -0.00085294  0.66406414  0.00000467  1
  Fe  Fe7  1  0.16696996  0.83201814  0.16772401  1
  Ni  Ni8  1  -0.00124107  0.66575863  0.33213912  1
  Ni  Ni9  1  0.33055229  -0.00107270  0.99792584  1
  Cr  Cr10  1  0.49468075  0.16507680  0.16509311  1
  Fe  Fe11  1  0.33099261  0.99615513  0.33264481  1
  Ni  Ni12  1  0.33164839  0.33119851  0.99456719  1
  Cr  Cr13  1  0.49861142  0.49998599  0.16403113  1
  Fe  Fe14  1  0.33234393  0.33382635  0.33407146  1
  Cr  Cr15  1  0.32911663  0.66589833  0.99673566  1
  Fe  Fe16  1  0.49638615  0.83123390  0.16542808  1
  Fe  Fe17  1  0.33318205  0.66509776  0.33261238  1
  Cr  Cr18  1  0.66468849  -0.00065781  -0.00102917  1
  Fe  Fe19  1  0.83268864  0.16542884  0.16567923  1
  Cr  Cr20  1  0.66330568  0.99814843  0.33222502  1
  Cr  Cr21  1  0.66689194  0.33130328  -0.00089661  1
  Fe  Fe22  1  0.83151126  0.50071653  0.16608926  1
  Cr  Cr23  1  0.66505424  0.33272191  0.33281301  1
  Fe  Fe24  1  0.66498262  0.66614268  0.00005598  1
  Fe  Fe25  1  0.83172501  0.82950652  0.16709532  1
  Ni  Ni26  1  0.66644853  0.66616482  0.33250919  1
  Fe  Fe27  1  0.16679604  0.16657241  0.49781978  1
  Fe  Fe28  1  -0.00049835  0.00022269  0.66572471  1
  Fe  Fe29  1  0.16531832  0.16613848  0.83235478  1
  Fe  Fe30  1  0.16504677  0.49809534  0.49839739  1
  Fe  Fe31  1  -0.00054818  0.33166341  0.66490502  1
  Fe  Fe32  1  0.16589903  0.49720250  0.83021032  1
  Cr  Cr33  1  0.16355172  0.83204729  0.49786358  1
  Fe  Fe34  1  -0.00079259  0.66314152  0.66332288  1
  Fe  Fe35  1  0.16432664  0.83149127  0.83008922  1
  Fe  Fe36  1  0.49563906  0.16693856  0.49873785  1
  Cr  Cr37  1  0.33153623  0.99810887  0.66656593  1
  Fe  Fe38  1  0.49767681  0.16775143  0.83182064  1
  Fe  Fe39  1  0.49857754  0.49933464  0.49873931  1
  Fe  Fe40  1  0.33294421  0.33282340  0.66562684  1
  Fe  Fe41  1  0.49778120  0.49635809  0.83039284  1
  Fe  Fe42  1  0.49888055  0.82941504  0.49805387  1
  Fe  Fe43  1  0.33252925  0.66197623  0.66499470  1
  Cr  Cr44  1  0.49870337  0.82990762  0.83327884  1
  Cr  Cr45  1  0.83380187  0.16454669  0.49990764  1
  Cr  Cr46  1  0.66367887  0.00045578  0.66387507  1
  Fe  Fe47  1  0.83251063  0.16644250  0.82928207  1
  Fe  Fe48  1  0.83185536  0.50145475  0.49945534  1
  Ni  Ni49  1  0.66443128  0.33350624  0.66424548  1
  Cr  Cr50  1  0.83089575  0.49826661  0.83168999  1
  Fe  Fe51  1  0.83138428  0.82859024  0.49829390  1
  Fe  Fe52  1  0.66312906  0.66294821  0.66211523  1
  Cr  Cr53  1  0.83161621  0.83074247  0.82742755  1
" 