# generated using pymatgen
data_Cr9Ni7
_symmetry_space_group_name_H-M   'P 1'
_cell_length_a   4.97803164
_cell_length_b   4.97803164
_cell_length_c   7.03999996
_cell_angle_alpha   90.00000250
_cell_angle_beta   90.00000250
_cell_angle_gamma   90.00000433
_symmetry_Int_Tables_number   1
_chemical_formula_structural   Cr9Ni7
_chemical_formula_sum   'Cr9 Ni7'
_cell_volume   174.45682375
_cell_formula_units_Z   1
loop_
 _symmetry_equiv_pos_site_id
 _symmetry_equiv_pos_as_xyz
  1  'x, y, z'
loop_
 _atom_site_type_symbol
 _atom_site_label
 _atom_site_symmetry_multiplicity
 _atom_site_fract_x
 _atom_site_fract_y
 _atom_site_fract_z
 _atom_site_occupancy
  Cr  Cr0  1  0.62620276  0.92100447  0.68456638  1
  Cr  Cr1  1  0.11679917  0.41326901  0.19208053  1
  Cr  Cr2  1  0.87762004  0.16064796  0.94326192  1
  Cr  Cr3  1  0.37740025  0.66629881  0.43769661  1
  Ni  Ni4  1  0.37047815  0.16370536  0.94030005  1
  Cr  Cr5  1  0.62272137  0.41481504  0.68904072  1
  Cr  Cr6  1  0.37413353  0.67056865  0.94150698  1
  Cr  Cr7  1  0.62405175  0.41114208  0.18864556  1
  Cr  Cr8  1  0.11793216  0.40728396  0.68466866  1
  Ni  Ni9  1  0.12615882  0.91651493  0.19139597  1
  Ni  Ni10  1  0.12041804  0.91451651  0.68619633  1
  Ni  Ni11  1  0.62872493  0.92078775  0.18881665  1
  Ni  Ni12  1  0.87536538  0.15854740  0.43865344  1
  Ni  Ni13  1  0.87706310  0.67296910  0.43847361  1
  Cr  Cr14  1  0.87213439  0.66771138  0.93699056  1
  Ni  Ni15  1  0.36929142  0.16497023  0.43932235  1
