# generated using pymatgen
data_Cr(Fe2Ni3)3
_symmetry_space_group_name_H-M   'P 1'
_cell_length_a   4.97803164
_cell_length_b   4.97803164
_cell_length_c   7.03999996
_cell_angle_alpha   90.00000250
_cell_angle_beta   90.00000250
_cell_angle_gamma   90.00000433
_symmetry_Int_Tables_number   1
_chemical_formula_structural   Cr(Fe2Ni3)3
_chemical_formula_sum   'Cr1 Fe6 Ni9'
_cell_volume   174.45682375
_cell_formula_units_Z   1
loop_
 _symmetry_equiv_pos_site_id
 _symmetry_equiv_pos_as_xyz
  1  'x, y, z'
loop_
 _atom_site_type_symbol
 _atom_site_label
 _atom_site_symmetry_multiplicity
 _atom_site_fract_x
 _atom_site_fract_y
 _atom_site_fract_z
 _atom_site_occupancy
  Fe  Fe0  1  0.77305955  0.30757719  0.69179094  1
  Fe  Fe1  1  0.52283901  0.55008638  0.42982566  1
  Fe  Fe2  1  0.27015465  0.30075100  0.18239798  1
  Fe  Fe3  1  0.52221876  0.55488229  0.93426377  1
  Cr  Cr4  1  0.27705604  0.30307704  0.68745321  1
  Fe  Fe5  1  0.51861686  0.04402407  0.93683380  1
  Ni  Ni6  1  0.02056996  0.04976665  0.93962902  1
  Ni  Ni7  1  0.77831501  0.80301815  0.18472384  1
  Fe  Fe8  1  0.77038252  0.30495372  0.18505351  1
  Ni  Ni9  1  0.52687085  0.05214293  0.42969325  1
  Ni  Ni10  1  0.27392328  0.80423748  0.68922365  1
  Ni  Ni11  1  0.02666991  0.55315357  0.93141764  1
  Ni  Ni12  1  0.27214140  0.79610074  0.18446998  1
  Ni  Ni13  1  0.78077036  0.80221134  0.68319523  1
  Ni  Ni14  1  0.02301212  0.04667078  0.43501392  1
  Ni  Ni15  1  0.01713579  0.55082327  0.43736249  1
