# generated using pymatgen
data_Cr7Ni9
_symmetry_space_group_name_H-M   'P 1'
_cell_length_a   4.97803164
_cell_length_b   4.97803164
_cell_length_c   7.03999996
_cell_angle_alpha   90.00000250
_cell_angle_beta   90.00000250
_cell_angle_gamma   90.00000433
_symmetry_Int_Tables_number   1
_chemical_formula_structural   Cr7Ni9
_chemical_formula_sum   'Cr7 Ni9'
_cell_volume   174.45682375
_cell_formula_units_Z   1
loop_
 _symmetry_equiv_pos_site_id
 _symmetry_equiv_pos_as_xyz
  1  'x, y, z'
loop_
 _atom_site_type_symbol
 _atom_site_label
 _atom_site_symmetry_multiplicity
 _atom_site_fract_x
 _atom_site_fract_y
 _atom_site_fract_z
 _atom_site_occupancy
  Cr  Cr0  1  0.60287404  0.10559515  0.67302883  1
  Cr  Cr1  1  0.60354698  0.60518497  0.17622001  1
  Cr  Cr2  1  0.09830000  0.60776258  0.17809410  1
  Cr  Cr3  1  0.85334212  0.85367149  0.92371279  1
  Cr  Cr4  1  0.34470648  0.35179117  0.91954589  1
  Cr  Cr5  1  0.34575900  0.34995624  0.43020082  1
  Cr  Cr6  1  0.60409856  0.10326858  0.17760871  1
  Ni  Ni7  1  0.34345824  0.85611278  0.42548931  1
  Ni  Ni8  1  0.09495734  0.60486311  0.67301297  1
  Ni  Ni9  1  0.85509580  0.85531741  0.42895603  1
  Ni  Ni10  1  0.34614176  0.85638499  0.92315799  1
  Ni  Ni11  1  0.85408151  0.35276583  0.42779094  1
  Ni  Ni12  1  0.10257751  0.09793325  0.17816962  1
  Ni  Ni13  1  0.85140020  0.35584101  0.91979867  1
  Ni  Ni14  1  0.60029030  0.61120307  0.67395562  1
  Ni  Ni15  1  0.10270404  0.10253683  0.67497331  1
