# generated using pymatgen
data_CrNi3
_symmetry_space_group_name_H-M   'P 1'
_cell_length_a   4.97803164
_cell_length_b   4.97803164
_cell_length_c   7.03999996
_cell_angle_alpha   90.00000250
_cell_angle_beta   90.00000250
_cell_angle_gamma   90.00000433
_symmetry_Int_Tables_number   1
_chemical_formula_structural   CrNi3
_chemical_formula_sum   'Cr4 Ni12'
_cell_volume   174.45682375
_cell_formula_units_Z   4
loop_
 _symmetry_equiv_pos_site_id
 _symmetry_equiv_pos_as_xyz
  1  'x, y, z'
loop_
 _atom_site_type_symbol
 _atom_site_label
 _atom_site_symmetry_multiplicity
 _atom_site_fract_x
 _atom_site_fract_y
 _atom_site_fract_z
 _atom_site_occupancy
  Cr  Cr0  1  0.24560715  0.44300869  0.71473408  1
  Ni  Ni1  1  0.49465510  0.19832894  0.96324557  1
  Ni  Ni2  1  0.74296319  0.44656211  0.21608798  1
  Ni  Ni3  1  0.99965835  0.19538811  0.96303493  1
  Ni  Ni4  1  0.49158648  0.19344942  0.45991549  1
  Cr  Cr5  1  0.74405438  0.93684715  0.21534753  1
  Cr  Cr6  1  0.24477042  0.44183952  0.21291721  1
  Ni  Ni7  1  0.24954891  0.93914568  0.21031749  1
  Ni  Ni8  1  0.99868488  0.68862188  0.46366239  1
  Ni  Ni9  1  0.49457648  0.69163519  0.46481162  1
  Ni  Ni10  1  0.74446756  0.44387859  0.71063393  1
  Ni  Ni11  1  0.24582696  0.93820834  0.71098924  1
  Cr  Cr12  1  0.74703228  0.94033062  0.71051741  1
  Ni  Ni13  1  0.00288320  0.68966913  0.96784073  1
  Ni  Ni14  1  0.99378783  0.19667324  0.46251544  1
  Ni  Ni15  1  0.49300292  0.68957496  0.96539235  1
