# generated using pymatgen
data_Cr3Fe13
_symmetry_space_group_name_H-M   'P 1'
_cell_length_a   4.97803164
_cell_length_b   4.97803164
_cell_length_c   7.03999996
_cell_angle_alpha   90.00000250
_cell_angle_beta   90.00000250
_cell_angle_gamma   90.00000433
_symmetry_Int_Tables_number   1
_chemical_formula_structural   Cr3Fe13
_chemical_formula_sum   'Cr3 Fe13'
_cell_volume   174.45682375
_cell_formula_units_Z   1
loop_
 _symmetry_equiv_pos_site_id
 _symmetry_equiv_pos_as_xyz
  1  'x, y, z'
loop_
 _atom_site_type_symbol
 _atom_site_label
 _atom_site_symmetry_multiplicity
 _atom_site_fract_x
 _atom_site_fract_y
 _atom_site_fract_z
 _atom_site_occupancy
  Cr  Cr0  1  0.31867823  0.02485584  0.93414134  1
  Fe  Fe1  1  0.32677460  0.02972664  0.43337771  1
  Cr  Cr2  1  0.57077640  0.28535837  0.18416882  1
  Cr  Cr3  1  0.57386142  0.28222236  0.68484789  1
  Fe  Fe4  1  0.82654160  0.02859825  0.93267936  1
  Fe  Fe5  1  0.82779366  0.52992618  0.43379200  1
  Fe  Fe6  1  0.06992677  0.78120869  0.68510610  1
  Fe  Fe7  1  0.83060771  0.52884185  0.93424624  1
  Fe  Fe8  1  0.32215470  0.53049386  0.43057910  1
  Fe  Fe9  1  0.31933421  0.52788973  0.93292689  1
  Fe  Fe10  1  0.07618082  0.28349888  0.67936772  1
  Fe  Fe11  1  0.57842356  0.77929902  0.18794137  1
  Fe  Fe12  1  0.07707713  0.27805847  0.18420167  1
  Fe  Fe13  1  0.58316994  0.78073710  0.67994869  1
  Fe  Fe14  1  0.07196126  0.77845210  0.18519793  1
  Fe  Fe15  1  0.82879043  0.02663139  0.43319899  1
