# generated using pymatgen
data_Cr10Fe17
_symmetry_space_group_name_H-M   'P 1'
_cell_length_a   7.46704769
_cell_length_b   7.46704769
_cell_length_c   10.56000042
_cell_angle_alpha   90.00000250
_cell_angle_beta   90.00000250
_cell_angle_gamma   90.00000433
_symmetry_Int_Tables_number   1
_chemical_formula_structural   Cr10Fe17
_chemical_formula_sum   'Cr20 Fe34'
_cell_volume   588.79184433
_cell_formula_units_Z   2
loop_
 _symmetry_equiv_pos_site_id
 _symmetry_equiv_pos_as_xyz
  1  'x, y, z'
loop_
 _atom_site_type_symbol
 _atom_site_label
 _atom_site_symmetry_multiplicity
 _atom_site_fract_x
 _atom_site_fract_y
 _atom_site_fract_z
 _atom_site_occupancy
  Cr  Cr0  1  0.79721922  0.39745855  0.48101807  1
  Cr  Cr1  1  0.46233287  0.06120723  0.14884627  1
  Cr  Cr2  1  0.36455205  0.72723585  0.37030610  1
  Cr  Cr3  1  0.92445004  0.06234436  0.25619692  1
  Cr  Cr4  1  0.35818914  0.39844930  0.37065893  1
  Cr  Cr5  1  0.07667182  0.56830412  0.42942432  1
  Fe  Fe6  1  0.85609448  0.89953840  0.86941159  1
  Cr  Cr7  1  0.69367206  0.73417729  0.70394188  1
  Cr  Cr8  1  0.02766239  0.39284578  0.03735805  1
  Cr  Cr9  1  0.13399869  0.72981852  0.81283736  1
  Cr  Cr10  1  0.18130530  0.56622475  0.20400168  1
  Fe  Fe11  1  0.74850541  0.56573033  0.09223142  1
  Cr  Cr12  1  0.79771322  0.06574433  0.47397000  1
  Fe  Fe13  1  0.64424545  0.56324601  0.31091422  1
  Fe  Fe14  1  0.97398740  0.56835955  0.64737207  1
  Fe  Fe15  1  0.52654004  0.56441063  0.53645027  1
  Cr  Cr16  1  0.75261855  0.89823729  0.08966996  1
  Cr  Cr17  1  0.97670895  0.90074152  0.64278615  1
  Cr  Cr18  1  0.41119930  0.22944033  0.75739586  1
  Cr  Cr19  1  0.70415992  0.06622139  0.70513827  1
  Fe  Fe20  1  0.85903478  0.22989695  0.87110609  1
  Fe  Fe21  1  0.63650066  0.22995768  0.31229597  1
  Fe  Fe22  1  0.47157004  0.73132515  0.14908253  1
  Fe  Fe23  1  0.25202775  0.73192233  0.58723032  1
  Cr  Cr24  1  0.74719185  0.22767340  0.09339244  1
  Cr  Cr25  1  0.41401279  0.56789660  0.75342214  1
  Fe  Fe26  1  0.91038871  0.39758164  0.25937131  1
  Fe  Fe27  1  0.64031881  0.89648974  0.31162289  1
  Fe  Fe28  1  0.03038022  0.73618031  0.03540421  1
  Fe  Fe29  1  0.58676517  0.73289329  0.92349982  1
  Fe  Fe30  1  0.47542188  0.39982125  0.14745484  1
  Fe  Fe31  1  0.30245346  0.89636409  0.97673362  1
  Fe  Fe32  1  0.41544756  0.89943749  0.75719213  1
  Cr  Cr33  1  0.13008042  0.40050367  0.81487250  1
  Cr  Cr34  1  0.31205609  0.56558198  0.98559737  1
  Fe  Fe35  1  0.08711787  0.89893782  0.42383960  1
  Fe  Fe36  1  0.58209658  0.39938903  0.92257679  1
  Fe  Fe37  1  0.19259627  0.89430958  0.20136644  1
  Fe  Fe38  1  0.85656780  0.57080519  0.87319738  1
  Fe  Fe39  1  0.13540043  0.06236487  0.81713134  1
  Cr  Cr40  1  0.69754869  0.39858645  0.70691311  1
  Fe  Fe41  1  0.30291545  0.22785971  0.97979110  1
  Fe  Fe42  1  0.97453481  0.23119524  0.64580131  1
  Fe  Fe43  1  0.52457631  0.90104967  0.53937221  1
  Fe  Fe44  1  0.36335364  0.06448195  0.37193808  1
  Fe  Fe45  1  0.24919444  0.39948070  0.59319150  1
  Fe  Fe46  1  0.79681665  0.73742270  0.47818300  1
  Fe  Fe47  1  0.03221375  0.06060492  0.03115544  1
  Fe  Fe48  1  0.91353279  0.72628182  0.25977454  1
  Fe  Fe49  1  0.18960516  0.23055920  0.20209521  1
  Fe  Fe50  1  0.08364218  0.23335843  0.42641670  1
  Fe  Fe51  1  0.24723677  0.06592843  0.58891976  1
  Fe  Fe52  1  0.52305204  0.23046057  0.53751916  1
  Fe  Fe53  1  0.58106071  0.06854592  0.92543942  1
