# generated using pymatgen
data_CrNi7
_symmetry_space_group_name_H-M   'P 1'
_cell_length_a   4.97803164
_cell_length_b   4.97803164
_cell_length_c   7.03999996
_cell_angle_alpha   90.00000250
_cell_angle_beta   90.00000250
_cell_angle_gamma   90.00000433
_symmetry_Int_Tables_number   1
_chemical_formula_structural   CrNi7
_chemical_formula_sum   'Cr2 Ni14'
_cell_volume   174.45682375
_cell_formula_units_Z   2
loop_
 _symmetry_equiv_pos_site_id
 _symmetry_equiv_pos_as_xyz
  1  'x, y, z'
loop_
 _atom_site_type_symbol
 _atom_site_label
 _atom_site_symmetry_multiplicity
 _atom_site_fract_x
 _atom_site_fract_y
 _atom_site_fract_z
 _atom_site_occupancy
  Cr  Cr0  1  0.97533518  0.46912906  0.68922210  1
  Cr  Cr1  1  0.96768498  0.46654698  0.19021584  1
  Ni  Ni2  1  0.45927489  0.96346444  0.68999296  1
  Ni  Ni3  1  0.46816102  0.96386021  0.19441766  1
  Ni  Ni4  1  0.71759742  0.21711434  0.43647593  1
  Ni  Ni5  1  0.71657181  0.21580751  0.93729097  1
  Ni  Ni6  1  0.22688578  0.21744913  0.94234598  1
  Ni  Ni7  1  0.71739060  0.72068810  0.94173139  1
  Ni  Ni8  1  0.22113819  0.72008616  0.44219604  1
  Ni  Ni9  1  0.47288856  0.46927580  0.69130051  1
  Ni  Ni10  1  0.46053499  0.47016084  0.18960224  1
  Ni  Ni11  1  0.96902388  0.96650857  0.68926483  1
  Ni  Ni12  1  0.22086222  0.21136841  0.44294694  1
  Ni  Ni13  1  0.71509278  0.72151560  0.44169909  1
  Ni  Ni14  1  0.21745062  0.71479470  0.94140923  1
  Ni  Ni15  1  0.96449769  0.96502692  0.19152661  1
