# generated using pymatgen
data_Cr5Ni11
_symmetry_space_group_name_H-M   'P 1'
_cell_length_a   4.97803164
_cell_length_b   4.97803164
_cell_length_c   7.03999996
_cell_angle_alpha   90.00000250
_cell_angle_beta   90.00000250
_cell_angle_gamma   90.00000433
_symmetry_Int_Tables_number   1
_chemical_formula_structural   Cr5Ni11
_chemical_formula_sum   'Cr5 Ni11'
_cell_volume   174.45682375
_cell_formula_units_Z   1
loop_
 _symmetry_equiv_pos_site_id
 _symmetry_equiv_pos_as_xyz
  1  'x, y, z'
loop_
 _atom_site_type_symbol
 _atom_site_label
 _atom_site_symmetry_multiplicity
 _atom_site_fract_x
 _atom_site_fract_y
 _atom_site_fract_z
 _atom_site_occupancy
  Cr  Cr0  1  0.99558324  0.36470187  0.65729940  1
  Cr  Cr1  1  0.74561548  0.61728764  0.40916818  1
  Ni  Ni2  1  0.49701554  0.86845356  0.16127531  1
  Cr  Cr3  1  0.24629378  0.62478477  0.40896472  1
  Cr  Cr4  1  0.49909332  0.36511385  0.66549093  1
  Ni  Ni5  1  0.74576759  0.61412483  0.91551280  1
  Cr  Cr6  1  0.74685746  0.10964387  0.90902102  1
  Ni  Ni7  1  0.00151245  0.86241227  0.65893835  1
  Ni  Ni8  1  0.99772549  0.36399904  0.15870842  1
  Ni  Ni9  1  0.99693048  0.86471045  0.15904422  1
  Ni  Ni10  1  0.49477699  0.36479059  0.15731709  1
  Ni  Ni11  1  0.74626446  0.11267873  0.40808108  1
  Ni  Ni12  1  0.24419248  0.11227703  0.40910175  1
  Ni  Ni13  1  0.25124621  0.11493403  0.91265815  1
  Ni  Ni14  1  0.24821748  0.61191565  0.91769290  1
  Ni  Ni15  1  0.49500799  0.86452329  0.66194886  1
