# generated using pymatgen
data_Cr5Ni11
_symmetry_space_group_name_H-M   'P 1'
_cell_length_a   4.97803164
_cell_length_b   4.97803164
_cell_length_c   7.03999996
_cell_angle_alpha   90.00000250
_cell_angle_beta   90.00000250
_cell_angle_gamma   90.00000433
_symmetry_Int_Tables_number   1
_chemical_formula_structural   Cr5Ni11
_chemical_formula_sum   'Cr5 Ni11'
_cell_volume   174.45682375
_cell_formula_units_Z   1
loop_
 _symmetry_equiv_pos_site_id
 _symmetry_equiv_pos_as_xyz
  1  'x, y, z'
loop_
 _atom_site_type_symbol
 _atom_site_label
 _atom_site_symmetry_multiplicity
 _atom_site_fract_x
 _atom_site_fract_y
 _atom_site_fract_z
 _atom_site_occupancy
  Cr  Cr0  1  0.59906840  0.86741704  0.07445943  1
  Ni  Ni1  1  0.85835117  0.11334357  0.32504904  1
  Cr  Cr2  1  0.35555211  0.11654065  0.81598336  1
  Ni  Ni3  1  0.85593891  0.60734302  0.32485026  1
  Ni  Ni4  1  0.35263371  0.61666125  0.33049992  1
  Cr  Cr5  1  0.10606274  0.86311644  0.07570034  1
  Ni  Ni6  1  0.10211757  0.86180711  0.57070875  1
  Cr  Cr7  1  0.85425431  0.61435539  0.81752825  1
  Ni  Ni8  1  0.10104973  0.36653739  0.56880069  1
  Ni  Ni9  1  0.34827781  0.11475195  0.32681835  1
  Ni  Ni10  1  0.35014191  0.61080569  0.81583285  1
  Ni  Ni11  1  0.60232186  0.36076820  0.56578034  1
  Ni  Ni12  1  0.10114511  0.36115110  0.07326622  1
  Cr  Cr13  1  0.60209727  0.36353317  0.07294553  1
  Ni  Ni14  1  0.60329133  0.86312169  0.57193583  1
  Ni  Ni15  1  0.85173917  0.11784498  0.81709814  1
