# generated using pymatgen
data_Cr41Fe8Ni5
_symmetry_space_group_name_H-M   'P 1'
_cell_length_a   7.46704769
_cell_length_b   7.46704769
_cell_length_c   10.56000042
_cell_angle_alpha   90.00000250
_cell_angle_beta   90.00000250
_cell_angle_gamma   90.00000433
_symmetry_Int_Tables_number   1
_chemical_formula_structural   Cr41Fe8Ni5
_chemical_formula_sum   'Cr41 Fe8 Ni5'
_cell_volume   588.79184433
_cell_formula_units_Z   1
loop_
 _symmetry_equiv_pos_site_id
 _symmetry_equiv_pos_as_xyz
  1  'x, y, z'
loop_
 _atom_site_type_symbol
 _atom_site_label
 _atom_site_symmetry_multiplicity
 _atom_site_fract_x
 _atom_site_fract_y
 _atom_site_fract_z
 _atom_site_occupancy
  Cr  Cr0  1  0.32650685  0.02444329  0.13407391  1
  Cr  Cr1  1  0.34013367  0.33958358  0.20921691  1
  Cr  Cr2  1  0.10069453  0.68741000  0.67439449  1
  Cr  Cr3  1  0.08259203  0.15111697  0.28163365  1
  Cr  Cr4  1  0.82718176  0.95528930  0.36544517  1
  Cr  Cr5  1  0.58333677  0.06606193  0.51610398  1
  Cr  Cr6  1  0.32912487  0.10380628  0.90193385  1
  Cr  Cr7  1  0.08605509  0.53488171  0.14282975  1
  Cr  Cr8  1  0.83826464  0.87425232  0.59765512  1
  Cr  Cr9  1  0.57817864  0.61421090  0.90663975  1
  Cr  Cr10  1  0.84302998  0.18308248  0.68314660  1
  Cr  Cr11  1  0.08459412  0.76701909  0.43728966  1
  Cr  Cr12  1  0.83311617  0.26053044  0.44856960  1
  Cr  Cr13  1  0.33183920  0.72672945  0.05827070  1
  Cr  Cr14  1  0.33945501  0.64961421  0.29465395  1
  Cr  Cr15  1  0.07840751  0.61163408  0.90813547  1
  Cr  Cr16  1  0.58457369  0.45431501  0.36838201  1
  Cr  Cr17  1  0.08409429  0.92795688  0.98796999  1
  Cr  Cr18  1  0.58404022  0.00447586  0.75415695  1
  Cr  Cr19  1  0.09493501  0.07009961  0.51330394  1
  Cr  Cr20  1  0.08160856  0.38101539  0.59756345  1
  Cr  Cr21  1  0.32790270  0.17737757  0.67595679  1
  Cr  Cr22  1  0.09239304  0.45330384  0.35911486  1
  Cr  Cr23  1  0.58871371  0.37676686  0.60067451  1
  Cr  Cr24  1  0.33725443  0.95850205  0.37167540  1
  Cr  Cr25  1  0.83273202  0.34713170  0.21378432  1
  Cr  Cr26  1  0.57887709  0.37531176  0.59550357  1
  Cr  Cr27  1  0.33149102  0.09892302  0.90150046  1
  Cr  Cr28  1  0.83227712  0.72365302  0.06002527  1
  Cr  Cr29  1  0.58830082  0.30132031  0.82992512  1
  Cr  Cr30  1  0.33462909  0.27209234  0.44262022  1
  Cr  Cr31  1  0.58059311  0.22181907  0.06028055  1
  Cr  Cr32  1  0.83721113  0.40950012  0.97764575  1
  Cr  Cr33  1  0.58627743  0.83514714  0.21266380  1
  Cr  Cr34  1  0.59285164  0.92851371  0.98670095  1
  Cr  Cr35  1  0.84610945  0.03400712  0.13155258  1
  Cr  Cr36  1  0.83172411  0.49816132  0.75027841  1
  Cr  Cr37  1  0.83488208  0.56917983  0.51871115  1
  Cr  Cr38  1  0.08226133  0.30327576  0.83203733  1
  Fe  Fe39  1  0.83707434  0.10384503  0.90351892  1
  Fe  Fe40  1  0.08513156  0.83219790  0.21126451  1
  Fe  Fe41  1  0.08793771  0.98834980  0.75691736  1
  Fe  Fe42  1  0.58151668  0.53753746  0.13565312  1
  Fe  Fe43  1  0.33399355  0.49593672  0.75313777  1
  Cr  Cr44  1  0.33330107  0.42076561  0.98359740  1
  Fe  Fe45  1  0.08781893  0.23290297  0.06568158  1
  Ni  Ni46  1  0.83023506  0.64127755  0.28411338  1
  Fe  Fe47  1  0.33292675  0.80326891  0.82404846  1
  Ni  Ni48  1  0.57697189  0.14895092  0.28550580  1
  Ni  Ni49  1  0.33615911  0.57518429  0.51544744  1
  Fe  Fe50  1  0.84101713  0.80039716  0.82637113  1
  Cr  Cr51  1  0.58192897  0.68153632  0.67478281  1
  Ni  Ni52  1  0.33156908  0.88442028  0.60029244  1
  Ni  Ni53  1  0.58895224  0.75754613  0.44570997  1
