# generated using pymatgen
data_Cr9Ni7
_symmetry_space_group_name_H-M   'P 1'
_cell_length_a   4.97803164
_cell_length_b   4.97803164
_cell_length_c   7.03999996
_cell_angle_alpha   90.00000250
_cell_angle_beta   90.00000250
_cell_angle_gamma   90.00000433
_symmetry_Int_Tables_number   1
_chemical_formula_structural   Cr9Ni7
_chemical_formula_sum   'Cr9 Ni7'
_cell_volume   174.45682375
_cell_formula_units_Z   1
loop_
 _symmetry_equiv_pos_site_id
 _symmetry_equiv_pos_as_xyz
  1  'x, y, z'
loop_
 _atom_site_type_symbol
 _atom_site_label
 _atom_site_symmetry_multiplicity
 _atom_site_fract_x
 _atom_site_fract_y
 _atom_site_fract_z
 _atom_site_occupancy
  Ni  Ni0  1  0.53286296  0.85145420  0.87260628  1
  Cr  Cr1  1  0.78692454  0.60266477  0.11607725  1
  Cr  Cr2  1  0.53220755  0.86244488  0.36964327  1
  Cr  Cr3  1  0.04206013  0.85434651  0.86869568  1
  Cr  Cr4  1  0.52899319  0.35076207  0.87050486  1
  Cr  Cr5  1  0.78705114  0.60262793  0.61893845  1
  Cr  Cr6  1  0.78700072  0.10454245  0.11537255  1
  Ni  Ni7  1  0.28390366  0.60564160  0.61895400  1
  Cr  Cr8  1  0.04443256  0.85565746  0.36911148  1
  Cr  Cr9  1  0.04181359  0.35132495  0.86811012  1
  Cr  Cr10  1  0.04202217  0.34911817  0.37122393  1
  Ni  Ni11  1  0.78033173  0.10404271  0.62344682  1
  Ni  Ni12  1  0.29508653  0.59999746  0.11714012  1
  Ni  Ni13  1  0.53422838  0.34824485  0.37392664  1
  Ni  Ni14  1  0.28623623  0.10573125  0.61903954  1
  Ni  Ni15  1  0.28746966  0.10738333  0.11993864  1
