# generated using pymatgen
data_Cr43Fe11
_symmetry_space_group_name_H-M   'P 1'
_cell_length_a   7.46704817
_cell_length_b   7.46704817
_cell_length_c   10.56000137
_cell_angle_alpha   90.00000250
_cell_angle_beta   90.00000250
_cell_angle_gamma   90.00000433
_symmetry_Int_Tables_number   1
_chemical_formula_structural   Cr43Fe11
_chemical_formula_sum   'Cr43 Fe11'
_cell_volume   588.79197270
_cell_formula_units_Z   1
loop_
 _symmetry_equiv_pos_site_id
 _symmetry_equiv_pos_as_xyz
  1  'x, y, z'
loop_
 _atom_site_type_symbol
 _atom_site_label
 _atom_site_symmetry_multiplicity
 _atom_site_fract_x
 _atom_site_fract_y
 _atom_site_fract_z
 _atom_site_occupancy
  Cr  Cr0  1  0.95519817  0.78567594  0.16066247  1
  Cr  Cr1  1  0.56799418  0.28631645  0.30700669  1
  Cr  Cr2  1  0.67988139  0.53824103  0.45494208  1
  Cr  Cr3  1  0.41052383  0.78986895  0.77026647  1
  Cr  Cr4  1  0.10527746  0.79479074  0.69321227  1
  Cr  Cr5  1  0.90750837  0.04267906  0.77280098  1
  Cr  Cr6  1  0.99732029  0.54447544  0.53665370  1
  Cr  Cr7  1  0.14185253  0.53662121  0.07925338  1
  Cr  Cr8  1  0.09956637  0.28887326  0.69859654  1
  Cr  Cr9  1  0.87408328  0.29764730  0.38285559  1
  Cr  Cr10  1  0.98027682  0.04236315  0.53420466  1
  Cr  Cr11  1  0.14754982  0.03729717  0.07931058  1
  Cr  Cr12  1  0.53071952  0.04304302  0.92396516  1
  Cr  Cr13  1  0.64865780  0.29541451  0.08304264  1
  Cr  Cr14  1  0.06936771  0.54009116  0.30792868  1
  Cr  Cr15  1  0.06476738  0.04001206  0.30471444  1
  Cr  Cr16  1  0.32785311  0.79343271  0.00666894  1
  Cr  Cr17  1  0.86907464  0.78972220  0.38413769  1
  Cr  Cr18  1  0.79894429  0.28723723  0.61618912  1
  Cr  Cr19  1  0.98923439  0.54593843  0.53799939  1
  Cr  Cr20  1  0.40259790  0.29491064  0.76805729  1
  Cr  Cr21  1  0.02401178  0.28410611  0.92246574  1
  Cr  Cr22  1  0.71936685  0.28581077  0.84954435  1
  Cr  Cr23  1  0.75891703  0.54116774  0.23171405  1
  Cr  Cr24  1  0.56007987  0.78679162  0.30655646  1
  Cr  Cr25  1  0.17434491  0.28775421  0.46773490  1
  Cr  Cr26  1  0.51836473  0.53353399  0.92058611  1
  Cr  Cr27  1  0.80356735  0.79467231  0.62363559  1
  Cr  Cr28  1  0.34122333  0.28529802  0.00263633  1
  Cr  Cr29  1  0.83196390  0.54491687  0.99721694  1
  Cr  Cr30  1  0.83604139  0.03289985  0.00428703  1
  Cr  Cr31  1  0.29951215  0.53180122  0.61599892  1
  Cr  Cr32  1  0.63540381  0.78750706  0.07661600  1
  Cr  Cr33  1  0.22612628  0.54420084  0.84465826  1
  Cr  Cr34  1  0.25726143  0.28198928  0.23273955  1
  Cr  Cr35  1  0.44792619  0.03593742  0.15876876  1
  Cr  Cr36  1  0.37299415  0.52877223  0.38132226  1
  Cr  Cr37  1  0.37944892  0.04258424  0.38419071  1
  Cr  Cr38  1  0.22815634  0.04145697  0.84232521  1
  Fe  Fe39  1  0.02593037  0.78659803  0.92308170  1
  Cr  Cr40  1  0.59737146  0.03406007  0.68541878  1
  Fe  Fe41  1  0.33077008  0.29609263  0.99851835  1
  Fe  Fe42  1  0.28934076  0.04381080  0.60960931  1
  Fe  Fe43  1  0.71802318  0.79072571  0.84832531  1
  Cr  Cr44  1  0.48355010  0.78338629  0.54350311  1
  Cr  Cr45  1  0.76169670  0.04784418  0.22883852  1
  Fe  Fe46  1  0.60881609  0.54859287  0.70029557  1
  Fe  Fe47  1  0.67953265  0.04723467  0.45716289  1
  Fe  Fe48  1  0.94996083  0.30110651  0.15043539  1
  Cr  Cr49  1  0.90331304  0.53993195  0.77474844  1
  Fe  Fe50  1  0.48506492  0.29022482  0.54375297  1
  Fe  Fe51  1  0.24580546  0.79495585  0.23643798  1
  Fe  Fe52  1  0.44894138  0.53690553  0.15092295  1
  Fe  Fe53  1  0.18316036  0.79865754  0.46244487  1
