# generated using pymatgen
data_Cr5Fe4
_symmetry_space_group_name_H-M   'P 1'
_cell_length_a   7.46704769
_cell_length_b   7.46704769
_cell_length_c   10.56000042
_cell_angle_alpha   90.00000250
_cell_angle_beta   90.00000250
_cell_angle_gamma   90.00000433
_symmetry_Int_Tables_number   1
_chemical_formula_structural   Cr5Fe4
_chemical_formula_sum   'Cr30 Fe24'
_cell_volume   588.79184433
_cell_formula_units_Z   6
loop_
 _symmetry_equiv_pos_site_id
 _symmetry_equiv_pos_as_xyz
  1  'x, y, z'
loop_
 _atom_site_type_symbol
 _atom_site_label
 _atom_site_symmetry_multiplicity
 _atom_site_fract_x
 _atom_site_fract_y
 _atom_site_fract_z
 _atom_site_occupancy
  Cr  Cr0  1  0.17852503  0.18998778  0.47519889  1
  Cr  Cr1  1  0.33417544  0.68372285  0.01830157  1
  Cr  Cr2  1  0.11139838  0.69129008  0.69387472  1
  Cr  Cr3  1  0.07416284  0.43825752  0.32291141  1
  Cr  Cr4  1  0.45237723  0.42672753  0.17405348  1
  Cr  Cr5  1  0.60204136  0.43580118  0.70083308  1
  Cr  Cr6  1  0.41808218  0.18205997  0.77263469  1
  Cr  Cr7  1  0.33791658  0.18090184  0.00861183  1
  Cr  Cr8  1  0.38117492  0.93087673  0.39762586  1
  Cr  Cr9  1  0.06391978  0.92612231  0.32547605  1
  Cr  Cr10  1  0.01950326  0.67716563  0.93859994  1
  Cr  Cr11  1  0.61422074  0.92991787  0.70700556  1
  Cr  Cr12  1  0.57272851  0.68566072  0.32756019  1
  Cr  Cr13  1  0.82843691  0.94263589  0.01183508  1
  Cr  Cr14  1  0.76611501  0.42581621  0.24329342  1
  Cr  Cr15  1  0.94848263  0.68058640  0.16914660  1
  Cr  Cr16  1  0.21718825  0.43088555  0.86351287  1
  Cr  Cr17  1  0.98901856  0.43061519  0.55594653  1
  Cr  Cr18  1  0.75021178  0.93398899  0.24711524  1
  Cr  Cr19  1  0.78990823  0.68513101  0.62821668  1
  Cr  Cr20  1  0.40325344  0.68171626  0.77888089  1
  Cr  Cr21  1  0.72079521  0.68433118  0.85020685  1
  Cr  Cr22  1  0.64467323  0.67752266  0.09321120  1
  Cr  Cr23  1  0.87372345  0.17226040  0.40016353  1
  Cr  Cr24  1  0.52763695  0.92643106  0.93716294  1
  Cr  Cr25  1  0.25698492  0.69026464  0.23595077  1
  Cr  Cr26  1  0.15304525  0.93734705  0.08304259  1
  Cr  Cr27  1  0.91373944  0.42521217  0.77953345  1
  Cr  Cr28  1  0.79663658  0.18452068  0.62764716  1
  Cr  Cr29  1  0.21212994  0.93837261  0.85934842  1
  Fe  Fe30  1  0.99655485  0.92756641  0.54671550  1
  Fe  Fe31  1  0.10343467  0.17651433  0.70895374  1
  Fe  Fe32  1  0.53094172  0.43999133  0.93278533  1
  Fe  Fe33  1  0.48669523  0.69545203  0.54343742  1
  Fe  Fe34  1  0.95024693  0.18501054  0.16077581  1
  Fe  Fe35  1  0.38252869  0.43279165  0.39831918  1
  Fe  Fe36  1  0.18018107  0.67813772  0.47559851  1
  Fe  Fe37  1  0.01805558  0.18687251  0.94276190  1
  Fe  Fe38  1  0.48773396  0.18290412  0.54360020  1
  Fe  Fe39  1  0.86786604  0.68246686  0.40372911  1
  Fe  Fe40  1  0.48412597  0.67787683  0.54389769  1
  Fe  Fe41  1  0.03195585  0.18614970  0.93092465  1
  Fe  Fe42  1  0.72024286  0.18325394  0.86484796  1
  Fe  Fe43  1  0.64387435  0.18379173  0.08765133  1
  Fe  Fe44  1  0.56058735  0.18673290  0.31791887  1
  Fe  Fe45  1  0.29596925  0.43549147  0.61730975  1
  Fe  Fe46  1  0.67512560  0.43894297  0.47435474  1
  Fe  Fe47  1  0.26209879  0.18431658  0.24147305  1
  Fe  Fe48  1  0.14650676  0.42300874  0.08582553  1
  Fe  Fe49  1  0.83887041  0.42465517  0.01263407  1
  Fe  Fe50  1  0.68728817  0.92927521  0.47461876  1
  Fe  Fe51  1  0.45485330  0.94296253  0.17149603  1
  Fe  Fe52  1  0.30340025  0.93496966  0.62357545  1
  Fe  Fe53  1  0.91433692  0.94328350  0.78523874  1
